<?xml version="1.0" encoding="UTF-8"?>

<!-- generated on 2022-05-10 15:44:35 by Eclipse SUMO duarouter Version 1.9.1
<configuration xmlns:xsi="http://www.w3.org/2001/XMLSchema-instance" xsi:noNamespaceSchemaLocation="http://sumo.dlr.de/xsd/duarouterConfiguration.xsd">

    <input>
        <net-file value="net.net.xml"/>
        <additional-files value="vtype.xml"/>
        <route-files value="trips.xml"/>
    </input>

    <output>
        <output-file value="routes.rou.xml"/>
        <alternatives-output value="routes.rou.alt.xml"/>
    </output>

    <time>
        <begin value="0"/>
        <end value="3600"/>
    </time>

    <report>
        <no-warnings value="true"/>
        <ignore-errors value="true"/>
        <no-step-log value="true"/>
    </report>

</configuration>
-->

<routes xmlns:xsi="http://www.w3.org/2001/XMLSchema-instance" xsi:noNamespaceSchemaLocation="http://sumo.dlr.de/xsd/routes_file.xsd">
    <vehicle id="0" depart="0.00">
        <route edges="-gneE5"/>
    </vehicle>
    <vehicle id="1" depart="0.20">
        <route edges="-gneE0 gneE5 gneE14"/>
    </vehicle>
    <vehicle id="2" depart="0.40">
        <route edges="-gneE12 gneE15 -gneE18"/>
    </vehicle>
    <vehicle id="4" depart="0.80">
        <route edges="gneE6 gneE10"/>
    </vehicle>
    <vehicle id="8" depart="1.60">
        <route edges="-gneE9 -gneE0 gneE6"/>
    </vehicle>
    <vehicle id="10" depart="2.00">
        <route edges="-gneE5 -gneE1"/>
    </vehicle>
    <vehicle id="11" depart="2.20">
        <route edges="-gneE0 -gneE1 gneE17"/>
    </vehicle>
    <vehicle id="13" depart="2.60">
        <route edges="-gneE6 gneE5 gneE14"/>
    </vehicle>
    <vehicle id="18" depart="3.60">
        <route edges="-gneE1 gneE17 -gneE18"/>
    </vehicle>
    <vehicle id="21" depart="4.20">
        <route edges="-gneE14 -gneE5 -gneE1 gneE17 -gneE16 gneE11"/>
    </vehicle>
    <vehicle id="22" depart="4.40">
        <route edges="-gneE12 gneE15 -gneE17 gneE1 gneE5 gneE14"/>
    </vehicle>
    <vehicle id="29" depart="5.80">
        <route edges="gneE1 gneE5 gneE14"/>
    </vehicle>
    <vehicle id="32" depart="6.40">
        <route edges="-gneE12 gneE15 -gneE17"/>
    </vehicle>
    <vehicle id="34" depart="6.80">
        <route edges="gneE15 -gneE18 gneE13"/>
    </vehicle>
    <vehicle id="35" depart="7.00">
        <route edges="-gneE5 gneE0"/>
    </vehicle>
    <vehicle id="37" depart="7.40">
        <route edges="gneE16 -gneE17 gneE1 gneE5 gneE14"/>
    </vehicle>
    <vehicle id="38" depart="7.60">
        <route edges="gneE1 gneE0"/>
    </vehicle>
    <vehicle id="42" depart="8.40">
        <route edges="-gneE10 -gneE6"/>
    </vehicle>
    <vehicle id="43" depart="8.60">
        <route edges="-gneE0 -gneE1 gneE17 -gneE15 gneE12"/>
    </vehicle>
    <vehicle id="44" depart="8.80">
        <route edges="-gneE13 gneE18 -gneE17 gneE1 gneE0"/>
    </vehicle>
    <vehicle id="45" depart="9.00">
        <route edges="gneE16 -gneE18 gneE13"/>
    </vehicle>
    <vehicle id="49" depart="9.80">
        <route edges="-gneE13 gneE18"/>
    </vehicle>
    <vehicle id="50" depart="10.00">
        <route edges="-gneE11 gneE16 -gneE17 gneE1 gneE5"/>
    </vehicle>
    <vehicle id="55" depart="11.00">
        <route edges="-gneE17 gneE1 gneE0 gneE9"/>
    </vehicle>
    <vehicle id="58" depart="11.60">
        <route edges="-gneE9 -gneE0 gneE5"/>
    </vehicle>
    <vehicle id="62" depart="12.40">
        <route edges="-gneE6 -gneE1 gneE17 -gneE16"/>
    </vehicle>
    <vehicle id="63" depart="12.60">
        <route edges="-gneE13 gneE18 -gneE17 gneE1 gneE6 gneE10"/>
    </vehicle>
    <vehicle id="66" depart="13.20">
        <route edges="-gneE10 -gneE6 -gneE1 gneE17 -gneE16"/>
    </vehicle>
    <vehicle id="71" depart="14.20">
        <route edges="-gneE14 -gneE5 -gneE1 gneE17 -gneE18 gneE13"/>
    </vehicle>
    <vehicle id="72" depart="14.40">
        <route edges="-gneE11 gneE16 -gneE18"/>
    </vehicle>
    <vehicle id="74" depart="14.80">
        <route edges="-gneE11 gneE16 -gneE17 gneE1"/>
    </vehicle>
    <vehicle id="77" depart="15.40">
        <route edges="-gneE11 gneE16 -gneE17 gneE1"/>
    </vehicle>
    <vehicle id="82" depart="16.40">
        <route edges="-gneE13 gneE18 -gneE15"/>
    </vehicle>
    <vehicle id="83" depart="16.60">
        <route edges="gneE15 -gneE17 gneE1 gneE6 gneE10"/>
    </vehicle>
    <vehicle id="86" depart="17.20">
        <route edges="gneE18 -gneE17 gneE1"/>
    </vehicle>
    <vehicle id="87" depart="17.40">
        <route edges="gneE17 -gneE15 gneE12"/>
    </vehicle>
    <vehicle id="88" depart="17.60">
        <route edges="-gneE11 gneE16 -gneE17 gneE1 gneE6 gneE10"/>
    </vehicle>
    <vehicle id="92" depart="18.40">
        <route edges="gneE16 -gneE17 gneE1 gneE6 gneE10"/>
    </vehicle>
    <vehicle id="94" depart="18.80">
        <route edges="gneE15 -gneE16"/>
    </vehicle>
    <vehicle id="95" depart="19.00">
        <route edges="-gneE9 -gneE0"/>
    </vehicle>
    <vehicle id="96" depart="19.20">
        <route edges="-gneE10 -gneE6 -gneE1 gneE17 -gneE18 gneE13"/>
    </vehicle>
    <vehicle id="97" depart="19.40">
        <route edges="-gneE14 -gneE5 -gneE1 gneE17 -gneE18 gneE13"/>
    </vehicle>
    <vehicle id="99" depart="19.80">
        <route edges="-gneE5 gneE0"/>
    </vehicle>
    <vehicle id="103" depart="20.60">
        <route edges="-gneE10 -gneE6 -gneE1 gneE17 -gneE18 gneE13"/>
    </vehicle>
    <vehicle id="105" depart="21.00">
        <route edges="-gneE10 -gneE6 -gneE1 gneE17 -gneE16"/>
    </vehicle>
    <vehicle id="108" depart="21.60">
        <route edges="-gneE6 gneE5"/>
    </vehicle>
    <vehicle id="110" depart="22.00">
        <route edges="-gneE9 -gneE0 -gneE1 gneE17 -gneE18 gneE13"/>
    </vehicle>
    <vehicle id="113" depart="22.60">
        <route edges="-gneE16"/>
    </vehicle>
    <vehicle id="117" depart="23.40">
        <route edges="-gneE0 gneE5 gneE14"/>
    </vehicle>
    <vehicle id="124" depart="24.80">
        <route edges="-gneE10 -gneE6 -gneE1 gneE17 -gneE16 gneE11"/>
    </vehicle>
    <vehicle id="125" depart="25.00">
        <route edges="gneE18"/>
    </vehicle>
    <vehicle id="127" depart="25.40">
        <route edges="-gneE0 -gneE1 gneE17 -gneE16 gneE11"/>
    </vehicle>
    <vehicle id="131" depart="26.20">
        <route edges="gneE18 -gneE17 gneE1 gneE5"/>
    </vehicle>
    <vehicle id="132" depart="26.40">
        <route edges="-gneE12 gneE15 -gneE17 gneE1 gneE0 gneE9"/>
    </vehicle>
    <vehicle id="134" depart="26.80">
        <route edges="gneE16 -gneE18"/>
    </vehicle>
    <vehicle id="136" depart="27.20">
        <route edges="gneE1 gneE0"/>
    </vehicle>
    <vehicle id="137" depart="27.40">
        <route edges="gneE15 -gneE17"/>
    </vehicle>
    <vehicle id="139" depart="27.80">
        <route edges="gneE18 -gneE15 gneE12"/>
    </vehicle>
    <vehicle id="140" depart="28.00">
        <route edges="-gneE6 -gneE1"/>
    </vehicle>
    <vehicle id="142" depart="28.40">
        <route edges="-gneE14 -gneE5 gneE0"/>
    </vehicle>
    <vehicle id="147" depart="29.40">
        <route edges="-gneE9 -gneE0 -gneE1 gneE17 -gneE15 gneE12"/>
    </vehicle>
    <vehicle id="148" depart="29.60">
        <route edges="-gneE6 -gneE1 gneE17 -gneE15"/>
    </vehicle>
    <vehicle id="152" depart="30.40">
        <route edges="-gneE16 gneE11"/>
    </vehicle>
    <vehicle id="157" depart="31.40">
        <route edges="-gneE13 gneE18 -gneE16"/>
    </vehicle>
    <vehicle id="159" depart="31.80">
        <route edges="-gneE11 gneE16 -gneE18"/>
    </vehicle>
    <vehicle id="163" depart="32.60">
        <route edges="-gneE10 -gneE6 gneE0 gneE9"/>
    </vehicle>
    <vehicle id="164" depart="32.80">
        <route edges="gneE17 -gneE15"/>
    </vehicle>
    <vehicle id="165" depart="33.00">
        <route edges="gneE16 -gneE17 gneE1 gneE5 gneE14"/>
    </vehicle>
    <vehicle id="168" depart="33.60">
        <route edges="-gneE17 gneE1 gneE0"/>
    </vehicle>
    <vehicle id="169" depart="33.80">
        <route edges="-gneE6 gneE5 gneE14"/>
    </vehicle>
    <vehicle id="172" depart="34.40">
        <route edges="gneE16 -gneE17 gneE1 gneE6 gneE10"/>
    </vehicle>
    <vehicle id="174" depart="34.80">
        <route edges="gneE15 -gneE17"/>
    </vehicle>
    <vehicle id="176" depart="35.20">
        <route edges="-gneE10 -gneE6 -gneE1 gneE17 -gneE15"/>
    </vehicle>
    <vehicle id="179" depart="35.80">
        <route edges="gneE18 -gneE15 gneE12"/>
    </vehicle>
    <vehicle id="181" depart="36.20">
        <route edges="-gneE12 gneE15 -gneE17 gneE1 gneE6"/>
    </vehicle>
    <vehicle id="184" depart="36.80">
        <route edges="-gneE11 gneE16 -gneE17 gneE1 gneE6 gneE10"/>
    </vehicle>
    <vehicle id="186" depart="37.20">
        <route edges="-gneE17 gneE1 gneE0"/>
    </vehicle>
    <vehicle id="188" depart="37.60">
        <route edges="-gneE1 gneE17 -gneE16"/>
    </vehicle>
    <vehicle id="191" depart="38.20">
        <route edges="-gneE12 gneE15 -gneE17 gneE1 gneE6"/>
    </vehicle>
    <vehicle id="193" depart="38.60">
        <route edges="-gneE17 gneE1 gneE6"/>
    </vehicle>
    <vehicle id="197" depart="39.40">
        <route edges="-gneE1 gneE17 -gneE16 gneE11"/>
    </vehicle>
    <vehicle id="200" depart="40.00">
        <route edges="-gneE12 gneE15 -gneE17 gneE1"/>
    </vehicle>
    <vehicle id="201" depart="40.20">
        <route edges="-gneE12 gneE15 -gneE17 gneE1 gneE6"/>
    </vehicle>
    <vehicle id="204" depart="40.80">
        <route edges="-gneE10 -gneE6 -gneE1"/>
    </vehicle>
    <vehicle id="210" depart="42.00">
        <route edges="-gneE17 gneE1 gneE5 gneE14"/>
    </vehicle>
    <vehicle id="211" depart="42.20">
        <route edges="gneE17 -gneE18 gneE13"/>
    </vehicle>
    <vehicle id="212" depart="42.40">
        <route edges="-gneE0 gneE6 gneE10"/>
    </vehicle>
    <vehicle id="213" depart="42.60">
        <route edges="gneE5 gneE14"/>
    </vehicle>
    <vehicle id="214" depart="42.80">
        <route edges="-gneE10 -gneE6 gneE0 gneE9"/>
    </vehicle>
    <vehicle id="220" depart="44.00">
        <route edges="-gneE12 gneE15 -gneE16"/>
    </vehicle>
    <vehicle id="221" depart="44.20">
        <route edges="-gneE9 -gneE0 -gneE1 gneE17"/>
    </vehicle>
    <vehicle id="222" depart="44.40">
        <route edges="gneE16 -gneE17 gneE1 gneE0"/>
    </vehicle>
    <vehicle id="224" depart="44.80">
        <route edges="-gneE10 -gneE6 gneE5"/>
    </vehicle>
    <vehicle id="226" depart="45.20">
        <route edges="gneE15 -gneE16"/>
    </vehicle>
    <vehicle id="236" depart="47.20">
        <route edges="-gneE10 -gneE6 gneE5 gneE14"/>
    </vehicle>
    <vehicle id="238" depart="47.60">
        <route edges="-gneE13 gneE18 -gneE17 gneE1 gneE5"/>
    </vehicle>
    <vehicle id="241" depart="48.20">
        <route edges="gneE16 -gneE17"/>
    </vehicle>
    <vehicle id="242" depart="48.40">
        <route edges="-gneE9 -gneE0 gneE5 gneE14"/>
    </vehicle>
    <vehicle id="244" depart="48.80">
        <route edges="-gneE9 -gneE0 -gneE1 gneE17"/>
    </vehicle>
    <vehicle id="248" depart="49.60">
        <route edges="-gneE12 gneE15 -gneE17 gneE1 gneE6"/>
    </vehicle>
    <vehicle id="250" depart="50.00">
        <route edges="-gneE9 -gneE0 gneE6 gneE10"/>
    </vehicle>
    <vehicle id="251" depart="50.20">
        <route edges="-gneE9 -gneE0 -gneE1 gneE17 -gneE18 gneE13"/>
    </vehicle>
    <vehicle id="252" depart="50.40">
        <route edges="-gneE0 gneE6 gneE10"/>
    </vehicle>
    <vehicle id="253" depart="50.60">
        <route edges="gneE17 -gneE15 gneE12"/>
    </vehicle>
    <vehicle id="255" depart="51.00">
        <route edges="-gneE5 -gneE1 gneE17 -gneE16 gneE11"/>
    </vehicle>
    <vehicle id="260" depart="52.00">
        <route edges="-gneE13 gneE18 -gneE15"/>
    </vehicle>
    <vehicle id="263" depart="52.60">
        <route edges="gneE16 -gneE17 gneE1 gneE5"/>
    </vehicle>
    <vehicle id="264" depart="52.80">
        <route edges="-gneE9 -gneE0 -gneE1"/>
    </vehicle>
    <vehicle id="265" depart="53.00">
        <route edges="-gneE6 -gneE1 gneE17 -gneE15"/>
    </vehicle>
    <vehicle id="266" depart="53.20">
        <route edges="-gneE11 gneE16 -gneE15"/>
    </vehicle>
    <vehicle id="268" depart="53.60">
        <route edges="-gneE12 gneE15 -gneE17 gneE1 gneE6"/>
    </vehicle>
    <vehicle id="269" depart="53.80">
        <route edges="-gneE0 -gneE1 gneE17 -gneE18 gneE13"/>
    </vehicle>
    <vehicle id="270" depart="54.00">
        <route edges="-gneE12 gneE15 -gneE17 gneE1 gneE0 gneE9"/>
    </vehicle>
    <vehicle id="271" depart="54.20">
        <route edges="-gneE10 -gneE6 gneE5 gneE14"/>
    </vehicle>
    <vehicle id="272" depart="54.40">
        <route edges="-gneE14 -gneE5 gneE0"/>
    </vehicle>
    <vehicle id="273" depart="54.60">
        <route edges="gneE16 -gneE18 gneE13"/>
    </vehicle>
    <vehicle id="274" depart="54.80">
        <route edges="gneE15 -gneE17 gneE1 gneE6 gneE10"/>
    </vehicle>
    <vehicle id="278" depart="55.60">
        <route edges="-gneE13 gneE18 -gneE15"/>
    </vehicle>
    <vehicle id="279" depart="55.80">
        <route edges="-gneE12 gneE15 -gneE17"/>
    </vehicle>
    <vehicle id="294" depart="58.80">
        <route edges="-gneE0 -gneE1 gneE17 -gneE16 gneE11"/>
    </vehicle>
    <vehicle id="295" depart="59.00">
        <route edges="gneE17 -gneE15 gneE12"/>
    </vehicle>
    <vehicle id="296" depart="59.20">
        <route edges="gneE16 -gneE18 gneE13"/>
    </vehicle>
    <vehicle id="297" depart="59.40">
        <route edges="-gneE11 gneE16 -gneE17 gneE1 gneE5"/>
    </vehicle>
    <vehicle id="303" depart="60.60">
        <route edges="-gneE13 gneE18"/>
    </vehicle>
    <vehicle id="306" depart="61.20">
        <route edges="gneE16 -gneE17 gneE1 gneE6 gneE10"/>
    </vehicle>
    <vehicle id="312" depart="62.40">
        <route edges="-gneE12 gneE15 -gneE17 gneE1 gneE5 gneE14"/>
    </vehicle>
    <vehicle id="314" depart="62.80">
        <route edges="gneE15 -gneE17 gneE1 gneE0"/>
    </vehicle>
    <vehicle id="315" depart="63.00">
        <route edges="-gneE13 gneE18 -gneE17 gneE1"/>
    </vehicle>
    <vehicle id="322" depart="64.40">
        <route edges="-gneE13 gneE18 -gneE17"/>
    </vehicle>
    <vehicle id="323" depart="64.60">
        <route edges="-gneE0 gneE6 gneE10"/>
    </vehicle>
    <vehicle id="324" depart="64.80">
        <route edges="-gneE10 -gneE6"/>
    </vehicle>
    <vehicle id="326" depart="65.20">
        <route edges="-gneE0 -gneE1 gneE17 -gneE18"/>
    </vehicle>
    <vehicle id="327" depart="65.40">
        <route edges="-gneE9 -gneE0 -gneE1 gneE17 -gneE16 gneE11"/>
    </vehicle>
    <vehicle id="331" depart="66.20">
        <route edges="-gneE14 -gneE5 -gneE1 gneE17"/>
    </vehicle>
    <vehicle id="334" depart="66.80">
        <route edges="-gneE5 -gneE1 gneE17 -gneE18"/>
    </vehicle>
    <vehicle id="336" depart="67.20">
        <route edges="-gneE10 -gneE6 -gneE1 gneE17 -gneE15 gneE12"/>
    </vehicle>
    <vehicle id="338" depart="67.60">
        <route edges="-gneE13 gneE18 -gneE17 gneE1 gneE5 gneE14"/>
    </vehicle>
    <vehicle id="343" depart="68.60">
        <route edges="-gneE12 gneE15 -gneE17 gneE1 gneE6"/>
    </vehicle>
    <vehicle id="344" depart="68.80">
        <route edges="-gneE9 -gneE0 -gneE1 gneE17 -gneE16"/>
    </vehicle>
    <vehicle id="346" depart="69.20">
        <route edges="-gneE5"/>
    </vehicle>
    <vehicle id="348" depart="69.60">
        <route edges="-gneE0 gneE6 gneE10"/>
    </vehicle>
    <vehicle id="351" depart="70.20">
        <route edges="-gneE13 gneE18 -gneE17 gneE1 gneE6"/>
    </vehicle>
    <vehicle id="353" depart="70.60">
        <route edges="-gneE12 gneE15 -gneE17 gneE1 gneE6 gneE10"/>
    </vehicle>
    <vehicle id="354" depart="70.80">
        <route edges="-gneE9 -gneE0"/>
    </vehicle>
    <vehicle id="356" depart="71.20">
        <route edges="-gneE14 -gneE5 -gneE1 gneE17 -gneE15"/>
    </vehicle>
    <vehicle id="359" depart="71.80">
        <route edges="-gneE9 -gneE0 -gneE1 gneE17 -gneE15 gneE12"/>
    </vehicle>
    <vehicle id="360" depart="72.00">
        <route edges="-gneE1 gneE17 -gneE15"/>
    </vehicle>
    <vehicle id="363" depart="72.60">
        <route edges="-gneE14 -gneE5 -gneE1 gneE17 -gneE18"/>
    </vehicle>
    <vehicle id="375" depart="75.00">
        <route edges="gneE1 gneE0"/>
    </vehicle>
    <vehicle id="376" depart="75.20">
        <route edges="-gneE17 gneE1 gneE0 gneE9"/>
    </vehicle>
    <vehicle id="379" depart="75.80">
        <route edges="-gneE5 -gneE1 gneE17 -gneE16"/>
    </vehicle>
    <vehicle id="382" depart="76.40">
        <route edges="gneE5"/>
    </vehicle>
    <vehicle id="383" depart="76.60">
        <route edges="-gneE9 -gneE0"/>
    </vehicle>
    <vehicle id="385" depart="77.00">
        <route edges="gneE16"/>
    </vehicle>
    <vehicle id="387" depart="77.40">
        <route edges="gneE17 -gneE16"/>
    </vehicle>
    <vehicle id="389" depart="77.80">
        <route edges="-gneE11 gneE16 -gneE15"/>
    </vehicle>
    <vehicle id="390" depart="78.00">
        <route edges="-gneE16 gneE11"/>
    </vehicle>
    <vehicle id="395" depart="79.00">
        <route edges="-gneE11 gneE16 -gneE15"/>
    </vehicle>
    <vehicle id="396" depart="79.20">
        <route edges="gneE18 -gneE17 gneE1 gneE0"/>
    </vehicle>
    <vehicle id="399" depart="79.80">
        <route edges="-gneE9 -gneE0"/>
    </vehicle>
    <vehicle id="400" depart="80.00">
        <route edges="-gneE1 gneE17 -gneE16 gneE11"/>
    </vehicle>
    <vehicle id="403" depart="80.60">
        <route edges="-gneE5 gneE6 gneE10"/>
    </vehicle>
    <vehicle id="404" depart="80.80">
        <route edges="-gneE10 -gneE6 gneE5 gneE14"/>
    </vehicle>
    <vehicle id="407" depart="81.40">
        <route edges="-gneE9 -gneE0 -gneE1 gneE17 -gneE15 gneE12"/>
    </vehicle>
    <vehicle id="408" depart="81.60">
        <route edges="-gneE12 gneE15 -gneE17 gneE1 gneE6"/>
    </vehicle>
    <vehicle id="411" depart="82.20">
        <route edges="-gneE0"/>
    </vehicle>
    <vehicle id="413" depart="82.60">
        <route edges="-gneE1 gneE17 -gneE16 gneE11"/>
    </vehicle>
    <vehicle id="414" depart="82.80">
        <route edges="-gneE11 gneE16 -gneE17 gneE1 gneE0 gneE9"/>
    </vehicle>
    <vehicle id="415" depart="83.00">
        <route edges="gneE18 -gneE15"/>
    </vehicle>
    <vehicle id="416" depart="83.20">
        <route edges="-gneE12 gneE15 -gneE18 gneE13"/>
    </vehicle>
    <vehicle id="421" depart="84.20">
        <route edges="gneE16 -gneE17 gneE1 gneE0"/>
    </vehicle>
    <vehicle id="422" depart="84.40">
        <route edges="-gneE14 -gneE5 -gneE1 gneE17 -gneE16 gneE11"/>
    </vehicle>
    <vehicle id="427" depart="85.40">
        <route edges="gneE18"/>
    </vehicle>
    <vehicle id="433" depart="86.60">
        <route edges="-gneE12 gneE15 -gneE16 gneE11"/>
    </vehicle>
    <vehicle id="434" depart="86.80">
        <route edges="-gneE13 gneE18 -gneE17 gneE1 gneE0 gneE9"/>
    </vehicle>
    <vehicle id="436" depart="87.20">
        <route edges="gneE17 -gneE16 gneE11"/>
    </vehicle>
    <vehicle id="437" depart="87.40">
        <route edges="-gneE14 -gneE5 -gneE1 gneE17 -gneE15 gneE12"/>
    </vehicle>
    <vehicle id="440" depart="88.00">
        <route edges="-gneE0 gneE6"/>
    </vehicle>
    <vehicle id="441" depart="88.20">
        <route edges="gneE15 -gneE18 gneE13"/>
    </vehicle>
    <vehicle id="443" depart="88.60">
        <route edges="gneE16 -gneE17 gneE1 gneE5"/>
    </vehicle>
    <vehicle id="445" depart="89.00">
        <route edges="-gneE1 gneE17 -gneE16 gneE11"/>
    </vehicle>
    <vehicle id="447" depart="89.40">
        <route edges="gneE6 gneE10"/>
    </vehicle>
    <vehicle id="449" depart="89.80">
        <route edges="-gneE11 gneE16 -gneE17 gneE1 gneE5"/>
    </vehicle>
    <vehicle id="451" depart="90.20">
        <route edges="-gneE5 -gneE1 gneE17"/>
    </vehicle>
    <vehicle id="453" depart="90.60">
        <route edges="-gneE9 -gneE0 gneE6 gneE10"/>
    </vehicle>
    <vehicle id="454" depart="90.80">
        <route edges="-gneE13 gneE18 -gneE15"/>
    </vehicle>
    <vehicle id="455" depart="91.00">
        <route edges="-gneE12 gneE15 -gneE16"/>
    </vehicle>
    <vehicle id="457" depart="91.40">
        <route edges="-gneE15"/>
    </vehicle>
    <vehicle id="459" depart="91.80">
        <route edges="-gneE17 gneE1 gneE6 gneE10"/>
    </vehicle>
    <vehicle id="463" depart="92.60">
        <route edges="-gneE6 -gneE1"/>
    </vehicle>
    <vehicle id="464" depart="92.80">
        <route edges="-gneE9 -gneE0 -gneE1 gneE17"/>
    </vehicle>
    <vehicle id="466" depart="93.20">
        <route edges="-gneE10 -gneE6"/>
    </vehicle>
    <vehicle id="467" depart="93.40">
        <route edges="gneE18 -gneE15 gneE12"/>
    </vehicle>
    <vehicle id="468" depart="93.60">
        <route edges="-gneE0 -gneE1"/>
    </vehicle>
    <vehicle id="474" depart="94.80">
        <route edges="gneE17 -gneE15"/>
    </vehicle>
    <vehicle id="475" depart="95.00">
        <route edges="-gneE6 -gneE1 gneE17 -gneE16"/>
    </vehicle>
    <vehicle id="478" depart="95.60">
        <route edges="gneE16 -gneE17 gneE1 gneE0"/>
    </vehicle>
    <vehicle id="479" depart="95.80">
        <route edges="-gneE14 -gneE5 -gneE1 gneE17 -gneE15 gneE12"/>
    </vehicle>
    <vehicle id="480" depart="96.00">
        <route edges="-gneE1 gneE17"/>
    </vehicle>
    <vehicle id="486" depart="97.20">
        <route edges="-gneE9 -gneE0 gneE6"/>
    </vehicle>
    <vehicle id="490" depart="98.00">
        <route edges="gneE1"/>
    </vehicle>
    <vehicle id="491" depart="98.20">
        <route edges="gneE16 -gneE18 gneE13"/>
    </vehicle>
    <vehicle id="492" depart="98.40">
        <route edges="-gneE10 -gneE6"/>
    </vehicle>
    <vehicle id="494" depart="98.80">
        <route edges="-gneE6 -gneE1 gneE17 -gneE16 gneE11"/>
    </vehicle>
    <vehicle id="497" depart="99.40">
        <route edges="-gneE17"/>
    </vehicle>
    <vehicle id="498" depart="99.60">
        <route edges="-gneE17 gneE1 gneE5 gneE14"/>
    </vehicle>
    <vehicle id="500" depart="100.00">
        <route edges="gneE1 gneE6"/>
    </vehicle>
    <vehicle id="506" depart="101.20">
        <route edges="-gneE0 -gneE1 gneE17 -gneE16 gneE11"/>
    </vehicle>
    <vehicle id="508" depart="101.60">
        <route edges="-gneE14 -gneE5 -gneE1 gneE17"/>
    </vehicle>
    <vehicle id="510" depart="102.00">
        <route edges="-gneE1 gneE17 -gneE18"/>
    </vehicle>
    <vehicle id="511" depart="102.20">
        <route edges="-gneE10 -gneE6"/>
    </vehicle>
    <vehicle id="513" depart="102.60">
        <route edges="-gneE0 -gneE1 gneE17 -gneE16 gneE11"/>
    </vehicle>
    <vehicle id="514" depart="102.80">
        <route edges="gneE18 -gneE17 gneE1 gneE0 gneE9"/>
    </vehicle>
    <vehicle id="518" depart="103.60">
        <route edges="-gneE9 -gneE0 gneE6"/>
    </vehicle>
    <vehicle id="523" depart="104.60">
        <route edges="-gneE0 gneE6 gneE10"/>
    </vehicle>
    <vehicle id="526" depart="105.20">
        <route edges="gneE18 -gneE17 gneE1 gneE6"/>
    </vehicle>
    <vehicle id="528" depart="105.60">
        <route edges="-gneE13 gneE18 -gneE17 gneE1 gneE5"/>
    </vehicle>
    <vehicle id="530" depart="106.00">
        <route edges="gneE18 -gneE17 gneE1 gneE5 gneE14"/>
    </vehicle>
    <vehicle id="531" depart="106.20">
        <route edges="-gneE6 -gneE1 gneE17 -gneE16"/>
    </vehicle>
    <vehicle id="532" depart="106.40">
        <route edges="gneE15 -gneE17"/>
    </vehicle>
    <vehicle id="535" depart="107.00">
        <route edges="-gneE0 -gneE1 gneE17 -gneE16 gneE11"/>
    </vehicle>
    <vehicle id="538" depart="107.60">
        <route edges="-gneE12 gneE15 -gneE17 gneE1 gneE0"/>
    </vehicle>
    <vehicle id="539" depart="107.80">
        <route edges="gneE6"/>
    </vehicle>
    <vehicle id="540" depart="108.00">
        <route edges="-gneE12 gneE15 -gneE17 gneE1 gneE0 gneE9"/>
    </vehicle>
    <vehicle id="541" depart="108.20">
        <route edges="gneE15 -gneE17 gneE1 gneE0"/>
    </vehicle>
    <vehicle id="543" depart="108.60">
        <route edges="gneE17 -gneE18 gneE13"/>
    </vehicle>
    <vehicle id="544" depart="108.80">
        <route edges="gneE16 -gneE17 gneE1 gneE6 gneE10"/>
    </vehicle>
    <vehicle id="545" depart="109.00">
        <route edges="-gneE13 gneE18 -gneE17 gneE1 gneE0"/>
    </vehicle>
    <vehicle id="546" depart="109.20">
        <route edges="gneE15 -gneE17 gneE1 gneE6"/>
    </vehicle>
    <vehicle id="547" depart="109.40">
        <route edges="-gneE11 gneE16 -gneE15 gneE12"/>
    </vehicle>
    <vehicle id="549" depart="109.80">
        <route edges="-gneE0 -gneE1 gneE17 -gneE18"/>
    </vehicle>
    <vehicle id="550" depart="110.00">
        <route edges="-gneE9 -gneE0 -gneE1 gneE17 -gneE18"/>
    </vehicle>
    <vehicle id="555" depart="111.00">
        <route edges="-gneE10 -gneE6"/>
    </vehicle>
    <vehicle id="558" depart="111.60">
        <route edges="gneE16 -gneE18 gneE13"/>
    </vehicle>
    <vehicle id="560" depart="112.00">
        <route edges="gneE1 gneE5 gneE14"/>
    </vehicle>
    <vehicle id="561" depart="112.20">
        <route edges="gneE15 -gneE17 gneE1"/>
    </vehicle>
    <vehicle id="562" depart="112.40">
        <route edges="-gneE5"/>
    </vehicle>
    <vehicle id="566" depart="113.20">
        <route edges="gneE17 -gneE15"/>
    </vehicle>
    <vehicle id="569" depart="113.80">
        <route edges="gneE18 -gneE17 gneE1 gneE5 gneE14"/>
    </vehicle>
    <vehicle id="572" depart="114.40">
        <route edges="gneE15 -gneE17 gneE1 gneE6 gneE10"/>
    </vehicle>
    <vehicle id="573" depart="114.60">
        <route edges="gneE15 -gneE17"/>
    </vehicle>
    <vehicle id="576" depart="115.20">
        <route edges="gneE1"/>
    </vehicle>
    <vehicle id="577" depart="115.40">
        <route edges="-gneE17 gneE1"/>
    </vehicle>
    <vehicle id="582" depart="116.40">
        <route edges="-gneE14 -gneE5 -gneE1 gneE17 -gneE16 gneE11"/>
    </vehicle>
    <vehicle id="589" depart="117.80">
        <route edges="-gneE5 -gneE1 gneE17 -gneE18 gneE13"/>
    </vehicle>
    <vehicle id="593" depart="118.60">
        <route edges="gneE17 -gneE15 gneE12"/>
    </vehicle>
    <vehicle id="595" depart="119.00">
        <route edges="gneE0"/>
    </vehicle>
    <vehicle id="601" depart="120.20">
        <route edges="-gneE12 gneE15 -gneE17 gneE1 gneE5 gneE14"/>
    </vehicle>
    <vehicle id="608" depart="121.60">
        <route edges="-gneE6 -gneE1 gneE17"/>
    </vehicle>
    <vehicle id="612" depart="122.40">
        <route edges="-gneE11 gneE16 -gneE17 gneE1 gneE0"/>
    </vehicle>
    <vehicle id="617" depart="123.40">
        <route edges="-gneE13 gneE18 -gneE17"/>
    </vehicle>
    <vehicle id="618" depart="123.60">
        <route edges="-gneE13 gneE18 -gneE15 gneE12"/>
    </vehicle>
    <vehicle id="621" depart="124.20">
        <route edges="-gneE11 gneE16 -gneE17 gneE1 gneE6 gneE10"/>
    </vehicle>
    <vehicle id="622" depart="124.40">
        <route edges="-gneE13 gneE18 -gneE17 gneE1 gneE0 gneE9"/>
    </vehicle>
    <vehicle id="626" depart="125.20">
        <route edges="gneE15 -gneE17 gneE1 gneE0 gneE9"/>
    </vehicle>
    <vehicle id="632" depart="126.40">
        <route edges="-gneE12 gneE15 -gneE17"/>
    </vehicle>
    <vehicle id="635" depart="127.00">
        <route edges="-gneE1 gneE17 -gneE18"/>
    </vehicle>
    <vehicle id="636" depart="127.20">
        <route edges="-gneE11 gneE16 -gneE17 gneE1 gneE0"/>
    </vehicle>
    <vehicle id="638" depart="127.60">
        <route edges="-gneE11 gneE16 -gneE17 gneE1 gneE0"/>
    </vehicle>
    <vehicle id="643" depart="128.60">
        <route edges="-gneE13 gneE18 -gneE17 gneE1 gneE6 gneE10"/>
    </vehicle>
    <vehicle id="646" depart="129.20">
        <route edges="-gneE0 -gneE1 gneE17 -gneE15 gneE12"/>
    </vehicle>
    <vehicle id="647" depart="129.40">
        <route edges="gneE16 -gneE17 gneE1 gneE6"/>
    </vehicle>
    <vehicle id="648" depart="129.60">
        <route edges="-gneE13 gneE18 -gneE17 gneE1"/>
    </vehicle>
    <vehicle id="650" depart="130.00">
        <route edges="-gneE14 -gneE5 -gneE1 gneE17 -gneE18"/>
    </vehicle>
    <vehicle id="654" depart="130.80">
        <route edges="gneE1 gneE0 gneE9"/>
    </vehicle>
    <vehicle id="656" depart="131.20">
        <route edges="gneE16"/>
    </vehicle>
    <vehicle id="659" depart="131.80">
        <route edges="-gneE13 gneE18 -gneE15 gneE12"/>
    </vehicle>
    <vehicle id="661" depart="132.20">
        <route edges="gneE16 -gneE17 gneE1 gneE5"/>
    </vehicle>
    <vehicle id="662" depart="132.40">
        <route edges="gneE16 -gneE18 gneE13"/>
    </vehicle>
    <vehicle id="663" depart="132.60">
        <route edges="gneE1 gneE5 gneE14"/>
    </vehicle>
    <vehicle id="667" depart="133.40">
        <route edges="-gneE0 -gneE1 gneE17"/>
    </vehicle>
    <vehicle id="669" depart="133.80">
        <route edges="gneE18 -gneE16"/>
    </vehicle>
    <vehicle id="670" depart="134.00">
        <route edges="-gneE13 gneE18 -gneE17 gneE1 gneE6"/>
    </vehicle>
    <vehicle id="671" depart="134.20">
        <route edges="gneE16 -gneE15"/>
    </vehicle>
    <vehicle id="673" depart="134.60">
        <route edges="gneE16 -gneE17 gneE1 gneE0 gneE9"/>
    </vehicle>
    <vehicle id="679" depart="135.80">
        <route edges="-gneE14 -gneE5 -gneE1 gneE17 -gneE18"/>
    </vehicle>
    <vehicle id="680" depart="136.00">
        <route edges="-gneE12 gneE15 -gneE17 gneE1"/>
    </vehicle>
    <vehicle id="682" depart="136.40">
        <route edges="-gneE10 -gneE6 -gneE1 gneE17 -gneE16"/>
    </vehicle>
    <vehicle id="683" depart="136.60">
        <route edges="-gneE14 -gneE5"/>
    </vehicle>
    <vehicle id="686" depart="137.20">