<?xml version="1.0" encoding="UTF-8"?>

<!-- generated on 2022-05-04 11:44:35 by Eclipse SUMO duarouter Version 1.9.1
<configuration xmlns:xsi="http://www.w3.org/2001/XMLSchema-instance" xsi:noNamespaceSchemaLocation="http://sumo.dlr.de/xsd/duarouterConfiguration.xsd">

    <input>
        <net-file value="single.net.xml"/>
        <route-files value="trips_single.xml"/>
    </input>

    <output>
        <output-file value="routes.rou.xml"/>
        <alternatives-output value="routes.rou.alt.xml"/>
    </output>

    <time>
        <begin value="0"/>
        <end value="3600"/>
    </time>

    <report>
        <no-warnings value="true"/>
        <ignore-errors value="true"/>
        <no-step-log value="true"/>
    </report>

</configuration>
-->

<routes xmlns:xsi="http://www.w3.org/2001/XMLSchema-instance" xsi:noNamespaceSchemaLocation="http://sumo.dlr.de/xsd/routes_file.xsd">
    <vehicle id="1" depart="0.20">
        <route edges="-gneE8 -gneE12"/>
    </vehicle>
    <vehicle id="2" depart="0.40">
        <route edges="gneE13 gneE12"/>
    </vehicle>
    <vehicle id="3" depart="0.60">
        <route edges="gneE7 gneE10 -gneE11"/>
    </vehicle>
    <vehicle id="6" depart="1.20">
        <route edges="-gneE10 -gneE12"/>
    </vehicle>
    <vehicle id="11" depart="2.20">
        <route edges="-gneE9 -gneE8 gneE10 -gneE11"/>
    </vehicle>
    <vehicle id="14" depart="2.80">
        <route edges="gneE7 gneE10"/>
    </vehicle>
    <vehicle id="16" depart="3.20">
        <route edges="gneE11 -gneE10 gneE8 gneE9"/>
    </vehicle>
    <vehicle id="17" depart="3.40">
        <route edges="-gneE9 -gneE8"/>
    </vehicle>
    <vehicle id="18" depart="3.60">
        <route edges="gneE6 gneE7 gneE10"/>
    </vehicle>
    <vehicle id="22" depart="4.40">
        <route edges="-gneE10 -gneE12"/>
    </vehicle>
    <vehicle id="23" depart="4.60">
        <route edges="-gneE12 -gneE13"/>
    </vehicle>
    <vehicle id="24" depart="4.80">
        <route edges="gneE12 -gneE7 -gneE6"/>
    </vehicle>
    <vehicle id="25" depart="5.00">
        <route edges="-gneE9 -gneE8 -gneE12"/>
    </vehicle>
    <vehicle id="27" depart="5.40">
        <route edges="gneE12 gneE10"/>
    </vehicle>
    <vehicle id="32" depart="6.40">
        <route edges="gneE7"/>
    </vehicle>
    <vehicle id="34" depart="6.80">
        <route edges="-gneE8 -gneE12 -gneE13"/>
    </vehicle>
    <vehicle id="36" depart="7.20">
        <route edges="gneE7 -gneE12 -gneE13"/>
    </vehicle>
    <vehicle id="37" depart="7.40">
        <route edges="gneE12 -gneE7 -gneE6"/>
    </vehicle>
    <vehicle id="39" depart="7.80">
        <route edges="-gneE8 -gneE12"/>
    </vehicle>
    <vehicle id="40" depart="8.00">
        <route edges="gneE11 -gneE10 -gneE12 -gneE13"/>
    </vehicle>
    <vehicle id="41" depart="8.20">
        <route edges="gneE12 gneE8"/>
    </vehicle>
    <vehicle id="42" depart="8.40">
        <route edges="-gneE9 -gneE8 -gneE12"/>
    </vehicle>
    <vehicle id="47" depart="9.40">
        <route edges="-gneE10 -gneE7 -gneE6"/>
    </vehicle>
    <vehicle id="49" depart="9.80">
        <route edges="gneE8"/>
    </vehicle>
    <vehicle id="52" depart="10.40">
        <route edges="-gneE8 gneE10"/>
    </vehicle>
    <vehicle id="55" depart="11.00">
        <route edges="gneE7 -gneE12 -gneE13"/>
    </vehicle>
    <vehicle id="56" depart="11.20">
        <route edges="gneE11 -gneE10 -gneE12"/>
    </vehicle>
    <vehicle id="57" depart="11.40">
        <route edges="gneE7 gneE8"/>
    </vehicle>
    <vehicle id="58" depart="11.60">
        <route edges="-gneE8 gneE10"/>
    </vehicle>
    <vehicle id="59" depart="11.80">
        <route edges="gneE12 gneE10 -gneE11"/>
    </vehicle>
    <vehicle id="62" depart="12.40">
        <route edges="-gneE10 -gneE12 -gneE13"/>
    </vehicle>
    <vehicle id="63" depart="12.60">
        <route edges="-gneE10 gneE8 gneE9"/>
    </vehicle>
    <vehicle id="64" depart="12.80">
        <route edges="gneE7"/>
    </vehicle>
    <vehicle id="66" depart="13.20">
        <route edges="gneE7 gneE8 gneE9"/>
    </vehicle>
    <vehicle id="69" depart="13.80">
        <route edges="gneE6 gneE7 gneE10 -gneE11"/>
    </vehicle>
    <vehicle id="77" depart="15.40">
        <route edges="-gneE12"/>
    </vehicle>
    <vehicle id="78" depart="15.60">
        <route edges="-gneE9 -gneE8 gneE10"/>
    </vehicle>
    <vehicle id="87" depart="17.40">
        <route edges="gneE6 gneE7 -gneE12"/>
    </vehicle>
    <vehicle id="90" depart="18.00">
        <route edges="gneE13 gneE12"/>
    </vehicle>
    <vehicle id="92" depart="18.40">
        <route edges="-gneE9 -gneE8 -gneE7 -gneE6"/>
    </vehicle>
    <vehicle id="93" depart="18.60">
        <route edges="gneE7 -gneE12"/>
    </vehicle>
    <vehicle id="94" depart="18.80">
        <route edges="-gneE7"/>
    </vehicle>
    <vehicle id="98" depart="19.60">
        <route edges="gneE11 -gneE10"/>
    </vehicle>
    <vehicle id="99" depart="19.80">
        <route edges="gneE8"/>
    </vehicle>
    <vehicle id="100" depart="20.00">
        <route edges="gneE8 gneE9"/>
    </vehicle>
    <vehicle id="101" depart="20.20">
        <route edges="gneE7 gneE10 -gneE11"/>
    </vehicle>
    <vehicle id="107" depart="21.40">
        <route edges="gneE8 gneE9"/>
    </vehicle>
    <vehicle id="109" depart="21.80">
        <route edges="-gneE12 -gneE13"/>
    </vehicle>
    <vehicle id="113" depart="22.60">
        <route edges="gneE11 -gneE10 gneE8"/>
    </vehicle>
    <vehicle id="115" depart="23.00">
        <route edges="-gneE10 -gneE12"/>
    </vehicle>
    <vehicle id="116" depart="23.20">
        <route edges="gneE12"/>
    </vehicle>
    <vehicle id="118" depart="23.60">
        <route edges="gneE7 -gneE12"/>
    </vehicle>
    <vehicle id="119" depart="23.80">
        <route edges="gneE12 gneE10"/>
    </vehicle>
    <vehicle id="120" depart="24.00">
        <route edges="gneE10"/>
    </vehicle>
    <vehicle id="121" depart="24.20">
        <route edges="gneE11 -gneE10 gneE8 gneE9"/>
    </vehicle>
    <vehicle id="123" depart="24.60">
        <route edges="-gneE7 -gneE6"/>
    </vehicle>
    <vehicle id="126" depart="25.20">
        <route edges="-gneE10 -gneE7"/>
    </vehicle>
    <vehicle id="127" depart="25.40">
        <route edges="gneE8 gneE9"/>
    </vehicle>
    <vehicle id="128" depart="25.60">
        <route edges="-gneE10 -gneE12"/>
    </vehicle>
    <vehicle id="130" depart="26.00">
        <route edges="gneE7 gneE8"/>
    </vehicle>
    <vehicle id="131" depart="26.20">
        <route edges="-gneE9 -gneE8 gneE10 -gneE11"/>
    </vehicle>
    <vehicle id="133" depart="26.60">
        <route edges="gneE12 gneE8 gneE9"/>
    </vehicle>
    <vehicle id="135" depart="27.00">
        <route edges="gneE6 gneE7 -gneE12 -gneE13"/>
    </vehicle>
    <vehicle id="136" depart="27.20">
        <route edges="gneE12 gneE8 gneE9"/>
    </vehicle>
    <vehicle id="139" depart="27.80">
        <route edges="-gneE8 gneE10"/>
    </vehicle>
    <vehicle id="143" depart="28.60">
        <route edges="gneE7 gneE10 -gneE11"/>
    </vehicle>
    <vehicle id="149" depart="29.80">
        <route edges="-gneE10 gneE8"/>
    </vehicle>
    <vehicle id="154" depart="30.80">
        <route edges="gneE6 gneE7 gneE8"/>
    </vehicle>
    <vehicle id="155" depart="31.00">
        <route edges="gneE7 -gneE12"/>
    </vehicle>
    <vehicle id="157" depart="31.40">
        <route edges="gneE6 gneE7 gneE8"/>
    </vehicle>
    <vehicle id="158" depart="31.60">
        <route edges="-gneE9 -gneE8 gneE10"/>
    </vehicle>
    <vehicle id="160" depart="32.00">
        <route edges="gneE7 gneE8 gneE9"/>
    </vehicle>
    <vehicle id="161" depart="32.20">
        <route edges="gneE6 gneE7 gneE8"/>
    </vehicle>
    <vehicle id="164" depart="32.80">
        <route edges="gneE6 gneE7 gneE8"/>
    </vehicle>
    <vehicle id="165" depart="33.00">
        <route edges="gneE6 gneE7 -gneE12 -gneE13"/>
    </vehicle>
    <vehicle id="166" depart="33.20">
        <route edges="gneE6 gneE7 gneE10 -gneE11"/>
    </vehicle>
    <vehicle id="167" depart="33.40">
        <route edges="gneE7 gneE8"/>
    </vehicle>
    <vehicle id="170" depart="34.00">
        <route edges="gneE6 gneE7 -gneE12"/>
    </vehicle>
    <vehicle id="171" depart="34.20">
        <route edges="-gneE10 -gneE12"/>
    </vehicle>
    <vehicle id="174" depart="34.80">
        <route edges="gneE12 -gneE7 -gneE6"/>
    </vehicle>
    <vehicle id="182" depart="36.40">
        <route edges="-gneE9 -gneE8"/>
    </vehicle>
    <vehicle id="184" depart="36.80">
        <route edges="-gneE10 gneE8 gneE9"/>
    </vehicle>
    <vehicle id="186" depart="37.20">
        <route edges="gneE13 gneE12"/>
    </vehicle>
    <vehicle id="191" depart="38.20">
        <route edges="-gneE8 -gneE7 -gneE6"/>
    </vehicle>
    <vehicle id="192" depart="38.40">
        <route edges="-gneE9 -gneE8 -gneE12 -gneE13"/>
    </vehicle>
    <vehicle id="195" depart="39.00">
        <route edges="gneE7 gneE10"/>
    </vehicle>
    <vehicle id="196" depart="39.20">
        <route edges="-gneE8"/>
    </vehicle>
    <vehicle id="197" depart="39.40">
        <route edges="-gneE10 -gneE12 -gneE13"/>
    </vehicle>
    <vehicle id="199" depart="39.80">
        <route edges="gneE12 -gneE7"/>
    </vehicle>
    <vehicle id="202" depart="40.40">
        <route edges="gneE6 gneE7 -gneE12"/>
    </vehicle>
    <vehicle id="204" depart="40.80">
        <route edges="gneE12 -gneE7 -gneE6"/>
    </vehicle>
    <vehicle id="205" depart="41.00">
        <route edges="gneE6 gneE7"/>
    </vehicle>
    <vehicle id="208" depart="41.60">
        <route edges="-gneE7"/>
    </vehicle>
    <vehicle id="210" depart="42.00">
        <route edges="-gneE9 -gneE8 gneE10"/>
    </vehicle>
    <vehicle id="214" depart="42.80">
        <route edges="gneE6 gneE7"/>
    </vehicle>
    <vehicle id="217" depart="43.40">
        <route edges="gneE11 -gneE10"/>
    </vehicle>
    <vehicle id="220" depart="44.00">
        <route edges="gneE13 gneE12 gneE8 gneE9"/>
    </vehicle>
    <vehicle id="221" depart="44.20">
        <route edges="gneE12 gneE8 gneE9"/>
    </vehicle>
    <vehicle id="222" depart="44.40">
        <route edges="gneE7 gneE10"/>
    </vehicle>
    <vehicle id="230" depart="46.00">
        <route edges="-gneE10 -gneE12 -gneE13"/>
    </vehicle>
    <vehicle id="231" depart="46.20">
        <route edges="-gneE8 -gneE12 -gneE13"/>
    </vehicle>
    <vehicle id="235" depart="47.00">
        <route edges="-gneE9 -gneE8"/>
    </vehicle>
    <vehicle id="236" depart="47.20">
        <route edges="-gneE9 -gneE8 -gneE12"/>
    </vehicle>
    <vehicle id="238" depart="47.60">
        <route edges="gneE12"/>
    </vehicle>
    <vehicle id="239" depart="47.80">
        <route edges="gneE7"/>
    </vehicle>
    <vehicle id="242" depart="48.40">
        <route edges="gneE7 gneE8 gneE9"/>
    </vehicle>
    <vehicle id="248" depart="49.60">
        <route edges="-gneE9 -gneE8 gneE10 -gneE11"/>
    </vehicle>
    <vehicle id="249" depart="49.80">
        <route edges="gneE10 -gneE11"/>
    </vehicle>
    <vehicle id="251" depart="50.20">
        <route edges="-gneE9 -gneE8"/>
    </vehicle>
    <vehicle id="254" depart="50.80">
        <route edges="-gneE10 -gneE7 -gneE6"/>
    </vehicle>
    <vehicle id="257" depart="51.40">
        <route edges="gneE6 gneE7"/>
    </vehicle>
    <vehicle id="266" depart="53.20">
        <route edges="gneE11 -gneE10 -gneE12"/>
    </vehicle>
    <vehicle id="269" depart="53.80">
        <route edges="gneE13 gneE12 gneE10 -gneE11"/>
    </vehicle>
    <vehicle id="270" depart="54.00">
        <route edges="gneE6 gneE7 gneE8 gneE9"/>
    </vehicle>
    <vehicle id="275" depart="55.00">
        <route edges="gneE13 gneE12 gneE10"/>
    </vehicle>
    <vehicle id="277" depart="55.40">
        <route edges="gneE7 gneE10"/>
    </vehicle>
    <vehicle id="281" depart="56.20">
        <route edges="gneE11 -gneE10 -gneE7 -gneE6"/>
    </vehicle>
    <vehicle id="282" depart="56.40">
        <route edges="gneE7"/>
    </vehicle>
    <vehicle id="285" depart="57.00">
        <route edges="gneE13 gneE12 -gneE7"/>
    </vehicle>
    <vehicle id="286" depart="57.20">
        <route edges="gneE13 gneE12 gneE8 gneE9"/>
    </vehicle>
    <vehicle id="288" depart="57.60">
        <route edges="gneE11 -gneE10 -gneE7"/>
    </vehicle>
    <vehicle id="291" depart="58.20">
        <route edges="gneE6 gneE7 gneE10 -gneE11"/>
    </vehicle>
    <vehicle id="292" depart="58.40">
        <route edges="gneE7 -gneE12"/>
    </vehicle>
    <vehicle id="293" depart="58.60">
        <route edges="gneE10"/>
    </vehicle>
    <vehicle id="295" depart="59.00">
        <route edges="gneE7 -gneE12"/>
    </vehicle>
    <vehicle id="299" depart="59.80">
        <route edges="-gneE10 gneE8 gneE9"/>
    </vehicle>
    <vehicle id="302" depart="60.40">
        <route edges="gneE13 gneE12 gneE10"/>
    </vehicle>
    <vehicle id="304" depart="60.80">
        <route edges="-gneE12"/>
    </vehicle>
    <vehicle id="306" depart="61.20">
        <route edges="gneE11 -gneE10 -gneE7"/>
    </vehicle>
    <vehicle id="307" depart="61.40">
        <route edges="gneE11 -gneE10 -gneE7"/>
    </vehicle>
    <vehicle id="310" depart="62.00">
        <route edges="-gneE8 gneE10 -gneE11"/>
    </vehicle>
    <vehicle id="316" depart="63.20">
        <route edges="-gneE8 gneE10 -gneE11"/>
    </vehicle>
    <vehicle id="319" depart="63.80">
        <route edges="gneE11 -gneE10 -gneE12 -gneE13"/>
    </vehicle>
    <vehicle id="321" depart="64.20">
        <route edges="gneE13 gneE12 gneE10 -gneE11"/>
    </vehicle>
    <vehicle id="330" depart="66.00">
        <route edges="gneE11 -gneE10 -gneE12 -gneE13"/>
    </vehicle>
    <vehicle id="332" depart="66.40">
        <route edges="gneE6 gneE7 gneE10"/>
    </vehicle>
    <vehicle id="333" depart="66.60">
        <route edges="gneE6 gneE7 -gneE12"/>
    </vehicle>
    <vehicle id="334" depart="66.80">
        <route edges="gneE11 -gneE10 -gneE7"/>
    </vehicle>
    <vehicle id="337" depart="67.40">
        <route edges="gneE12 gneE10"/>
    </vehicle>
    <vehicle id="338" depart="67.60">
        <route edges="gneE13 gneE12 gneE8 gneE9"/>
    </vehicle>
    <vehicle id="340" depart="68.00">
        <route edges="gneE12 gneE10 -gneE11"/>
    </vehicle>
    <vehicle id="342" depart="68.40">
        <route edges="-gneE10 -gneE7"/>
    </vehicle>
    <vehicle id="345" depart="69.00">
        <route edges="gneE13 gneE12 -gneE7"/>
    </vehicle>
    <vehicle id="346" depart="69.20">
        <route edges="gneE13 gneE12 gneE8 gneE9"/>
    </vehicle>
    <vehicle id="347" depart="69.40">
        <route edges="gneE6 gneE7 gneE10"/>
    </vehicle>
    <vehicle id="348" depart="69.60">
        <route edges="gneE12 gneE8 gneE9"/>
    </vehicle>
    <vehicle id="350" depart="70.00">
        <route edges="gneE12 gneE8"/>
    </vehicle>
    <vehicle id="352" depart="70.40">
        <route edges="-gneE12 -gneE13"/>
    </vehicle>
    <vehicle id="354" depart="70.80">
        <route edges="-gneE8 gneE10 -gneE11"/>
    </vehicle>
    <vehicle id="355" depart="71.00">
        <route edges="gneE13 gneE12"/>
    </vehicle>
    <vehicle id="358" depart="71.60">
        <route edges="-gneE10 -gneE7"/>
    </vehicle>
    <vehicle id="359" depart="71.80">
        <route edges="-gneE8 -gneE12 -gneE13"/>
    </vehicle>
    <vehicle id="362" depart="72.40">
        <route edges="gneE8 gneE9"/>
    </vehicle>
    <vehicle id="365" depart="73.00">
        <route edges="gneE10"/>
    </vehicle>
    <vehicle id="366" depart="73.20">
        <route edges="gneE7 -gneE12"/>
    </vehicle>
    <vehicle id="367" depart="73.40">
        <route edges="gneE12 gneE10"/>
    </vehicle>
    <vehicle id="368" depart="73.60">
        <route edges="gneE10 -gneE11"/>
    </vehicle>
    <vehicle id="369" depart="73.80">
        <route edges="-gneE9 -gneE8 -gneE12 -gneE13"/>
    </vehicle>
    <vehicle id="370" depart="74.00">
        <route edges="gneE13 gneE12 gneE8"/>
    </vehicle>
    <vehicle id="376" depart="75.20">
        <route edges="-gneE9 -gneE8"/>
    </vehicle>
    <vehicle id="378" depart="75.60">
        <route edges="gneE11 -gneE10 -gneE7 -gneE6"/>
    </vehicle>
    <vehicle id="379" depart="75.80">
        <route edges="-gneE7 -gneE6"/>
    </vehicle>
    <vehicle id="380" depart="76.00">
        <route edges="gneE6 gneE7 gneE10"/>
    </vehicle>
    <vehicle id="381" depart="76.20">
        <route edges="gneE6 gneE7 -gneE12"/>
    </vehicle>
    <vehicle id="382" depart="76.40">
        <route edges="gneE11 -gneE10 gneE8 gneE9"/>
    </vehicle>
    <vehicle id="388" depart="77.60">
        <route edges="gneE8"/>
    </vehicle>
    <vehicle id="389" depart="77.80">
        <route edges="gneE10 -gneE11"/>
    </vehicle>
    <vehicle id="394" depart="78.80">
        <route edges="gneE11 -gneE10 -gneE7 -gneE6"/>
    </vehicle>
    <vehicle id="396" depart="79.20">
        <route edges="gneE7 gneE8"/>
    </vehicle>
    <vehicle id="400" depart="80.00">
        <route edges="-gneE8 -gneE12 -gneE13"/>
    </vehicle>
    <vehicle id="401" depart="80.20">
        <route edges="gneE12 gneE8 gneE9"/>
    </vehicle>
    <vehicle id="402" depart="80.40">
        <route edges="gneE10 -gneE11"/>
    </vehicle>
    <vehicle id="403" depart="80.60">
        <route edges="gneE11 -gneE10 -gneE7 -gneE6"/>
    </vehicle>
    <vehicle id="407" depart="81.40">
        <route edges="gneE11 -gneE10 -gneE12"/>
    </vehicle>
    <vehicle id="409" depart="81.80">
        <route edges="gneE13 gneE12"/>
    </vehicle>
    <vehicle id="414" depart="82.80">
        <route edges="gneE12 gneE8"/>
    </vehicle>
    <vehicle id="416" depart="83.20">
        <route edges="gneE11 -gneE10 -gneE7"/>
    </vehicle>
    <vehicle id="417" depart="83.40">
        <route edges="gneE13 gneE12 -gneE7 -gneE6"/>
    </vehicle>
    <vehicle id="418" depart="83.60">
        <route edges="gneE12 gneE10 -gneE11"/>
    </vehicle>
    <vehicle id="421" depart="84.20">
        <route edges="gneE12 gneE8"/>
    </vehicle>
    <vehicle id="422" depart="84.40">
        <route edges="gneE7 gneE8"/>
    </vehicle>
    <vehicle id="423" depart="84.60">
        <route edges="-gneE9 -gneE8 -gneE12 -gneE13"/>
    </vehicle>
    <vehicle id="427" depart="85.40">
        <route edges="gneE8 gneE9"/>
    </vehicle>
    <vehicle id="428" depart="85.60">
        <route edges="gneE13 gneE12 -gneE7"/>
    </vehicle>
    <vehicle id="431" depart="86.20">
        <route edges="gneE13 gneE12 gneE8"/>
    </vehicle>
    <vehicle id="433" depart="86.60">
        <route edges="-gneE8 -gneE7 -gneE6"/>
    </vehicle>
    <vehicle id="437" depart="87.40">
        <route edges="gneE7 gneE10"/>
    </vehicle>
    <vehicle id="440" depart="88.00">
        <route edges="-gneE8 -gneE12 -gneE13"/>
    </vehicle>
    <vehicle id="444" depart="88.80">
        <route edges="-gneE9 -gneE8 gneE10"/>
    </vehicle>
    <vehicle id="445" depart="89.00">
        <route edges="gneE12 -gneE7"/>
    </vehicle>
    <vehicle id="447" depart="89.40">
        <route edges="-gneE7 -gneE6"/>
    </vehicle>
    <vehicle id="452" depart="90.40">
        <route edges="-gneE8"/>
    </vehicle>
    <vehicle id="453" depart="90.60">
        <route edges="gneE13 gneE12"/>
    </vehicle>
    <vehicle id="457" depart="91.40">
        <route edges="gneE12 -gneE7 -gneE6"/>
    </vehicle>
    <vehicle id="458" depart="91.60">
        <route edges="gneE12 gneE10"/>
    </vehicle>
    <vehicle id="459" depart="91.80">
        <route edges="gneE13 gneE12"/>
    </vehicle>
    <vehicle id="460" depart="92.00">
        <route edges="gneE12 gneE8"/>
    </vehicle>
    <vehicle id="461" depart="92.20">
        <route edges="gneE12 gneE8"/>
    </vehicle>
    <vehicle id="464" depart="92.80">
        <route edges="gneE13 gneE12 gneE10 -gneE11"/>
    </vehicle>
    <vehicle id="467" depart="93.40">
        <route edges="gneE11 -gneE10 gneE8 gneE9"/>
    </vehicle>
    <vehicle id="468" depart="93.60">
        <route edges="gneE11 -gneE10 gneE8"/>
    </vehicle>
    <vehicle id="469" depart="93.80">
        <route edges="gneE6 gneE7 -gneE12 -gneE13"/>
    </vehicle>
    <vehicle id="472" depart="94.40">
        <route edges="-gneE9 -gneE8 gneE10 -gneE11"/>
    </vehicle>
    <vehicle id="474" depart="94.80">
        <route edges="gneE8"/>
    </vehicle>
    <vehicle id="475" depart="95.00">
        <route edges="gneE13 gneE12 gneE8 gneE9"/>
    </vehicle>
    <vehicle id="480" depart="96.00">
        <route edges="gneE13 gneE12 gneE10"/>
    </vehicle>
    <vehicle id="481" depart="96.20">
        <route edges="gneE6 gneE7 gneE8 gneE9"/>
    </vehicle>
    <vehicle id="482" depart="96.40">
        <route edges="-gneE12"/>
    </vehicle>
    <vehicle id="483" depart="96.60">
        <route edges="-gneE10 gneE8"/>
    </vehicle>
    <vehicle id="484" depart="96.80">
        <route edges="gneE11 -gneE10 gneE8"/>
    </vehicle>
    <vehicle id="486" depart="97.20">
        <route edges="gneE6 gneE7 gneE8"/>
    </vehicle>
    <vehicle id="487" depart="97.40">
        <route edges="-gneE8 -gneE7 -gneE6"/>
    </vehicle>
    <vehicle id="489" depart="97.80">
        <route edges="-gneE8 -gneE7"/>
    </vehicle>
    <vehicle id="492" depart="98.40">
        <route edges="gneE13 gneE12"/>
    </vehicle>
    <vehicle id="494" depart="98.80">
        <route edges="gneE13 gneE12 gneE10 -gneE11"/>
    </vehicle>
    <vehicle id="495" depart="99.00">
        <route edges="-gneE9 -gneE8 gneE10 -gneE11"/>
    </vehicle>
    <vehicle id="498" depart="99.60">
        <route edges="-gneE9 -gneE8 -gneE7"/>
    </vehicle>
    <vehicle id="499" depart="99.80">
        <route edges="gneE8"/>
    </vehicle>
    <vehicle id="501" depart="100.20">
        <route edges="gneE11 -gneE10 gneE8 gneE9"/>
    </vehicle>
    <vehicle id="502" depart="100.40">
        <route edges="-gneE9 -gneE8 -gneE7 -gneE6"/>
    </vehicle>
    <vehicle id="505" depart="101.00">
        <route edges="gneE12 gneE10"/>
    </vehicle>
    <vehicle id="507" depart="101.40">
        <route edges="gneE6 gneE7 -gneE12"/>
    </vehicle>
    <vehicle id="511" depart="102.20">
        <route edges="gneE7 -gneE12 -gneE13"/>
    </vehicle>
    <vehicle id="513" depart="102.60">
        <route edges="-gneE10 gneE8"/>
    </vehicle>
    <vehicle id="515" depart="103.00">
        <route edges="-gneE8 -gneE12"/>
    </vehicle>
    <vehicle id="521" depart="104.20">
        <route edges="gneE13 gneE12 -gneE7"/>
    </vehicle>
    <vehicle id="525" depart="105.00">
        <route edges="gneE6 gneE7 gneE8"/>
    </vehicle>
    <vehicle id="526" depart="105.20">
        <route edges="gneE11 -gneE10 -gneE7"/>
    </vehicle>
    <vehicle id="529" depart="105.80">
        <route edges="gneE13 gneE12 -gneE7"/>
    </vehicle>
    <vehicle id="532" depart="106.40">
        <route edges="-gneE10 -gneE12 -gneE13"/>
    </vehicle>
    <vehicle id="535" depart="107.00">
        <route edges="gneE11 -gneE10 -gneE7"/>
    </vehicle>
    <vehicle id="536" depart="107.20">
        <route edges="gneE12 gneE10 -gneE11"/>
    </vehicle>
    <vehicle id="537" depart="107.40">
        <route edges="gneE13 gneE12 gneE8"/>
    </vehicle>
    <vehicle id="541" depart="108.20">
        <route edges="-gneE9 -gneE8 -gneE7"/>
    </vehicle>
    <vehicle id="542" depart="108.40">
        <route edges="-gneE9 -gneE8 gneE10 -gneE11"/>
    </vehicle>
    <vehicle id="543" depart="108.60">
        <route edges="gneE10"/>
    </vehicle>
    <vehicle id="544" depart="108.80">
        <route edges="-gneE9 -gneE8 gneE10 -gneE11"/>
    </vehicle>
    <vehicle id="546" depart="109.20">
        <route edges="gneE6 gneE7 gneE10 -gneE11"/>
    </vehicle>
    <vehicle id="550" depart="110.00">
        <route edges="-gneE8 gneE10 -gneE11"/>
    </vehicle>
    <vehicle id="551" depart="110.20">
        <route edges="-gneE9 -gneE8 gneE10"/>
    </vehicle>
    <vehicle id="552" depart="110.40">
        <route edges="gneE6 gneE7 gneE8"/>
    </vehicle>
    <vehicle id="553" depart="110.60">
        <route edges="gneE13 gneE12 gneE8 gneE9"/>
    </vehicle>
    <vehicle id="554" depart="110.80">
        <route edges="gneE12 -gneE7 -gneE6"/>
    </vehicle>
    <vehicle id="555" depart="111.00">
        <route edges="gneE11 -gneE10 -gneE12"/>
    </vehicle>
    <vehicle id="560" depart="112.00">
        <route edges="gneE7 gneE8 gneE9"/>
    </vehicle>
    <vehicle id="561" depart="112.20">
        <route edges="gneE6 gneE7 gneE10"/>
    </vehicle>
    <vehicle id="564" depart="112.80">
        <route edges="-gneE8 -gneE12"/>
    </vehicle>
    <vehicle id="568" depart="113.60">
        <route edges="-gneE9 -gneE8 gneE10 -gneE11"/>
    </vehicle>
    <vehicle id="577" depart="115.40">
        <route edges="gneE12 -gneE7"/>
    </vehicle>
    <vehicle id="579" depart="115.80">
        <route edges="gneE6 gneE7 gneE10 -gneE11"/>
    </vehicle>
    <vehicle id="581" depart="116.20">
        <route edges="gneE13 gneE12 -gneE7"/>
    </vehicle>
    <vehicle id="583" depart="116.60">
        <route edges="-gneE9 -gneE8 gneE10"/>
    </vehicle>
    <vehicle id="584" depart="116.80">
        <route edges="-gneE10 -gneE12 -gneE13"/>
    </vehicle>
    <vehicle id="586" depart="117.20">
        <route edges="-gneE8 -gneE12 -gneE13"/>
    </vehicle>
    <vehicle id="588" depart="117.60">
        <route edges="-gneE7 -gneE6"/>
    </vehicle>
    <vehicle id="590" depart="118.00">
        <route edges="gneE7"/>
    </vehicle>
    <vehicle id="591" depart="118.20">
        <route edges="-gneE10 gneE8"/>
    </vehicle>
    <vehicle id="592" depart="118.40">
        <route edges="-gneE10"/>
    </vehicle>
    <vehicle id="593" depart="118.60">
        <route edges="gneE8"/>
    </vehicle>
    <vehicle id="595" depart="119.00">
        <route edges="gneE13 gneE12 -gneE7"/>
    </vehicle>
    <vehicle id="600" depart="120.00">
        <route edges="gneE7 -gneE12"/>
    </vehicle>
    <vehicle id="602" depart="120.40">
        <route edges="-gneE9 -gneE8 -gneE12 -gneE13"/>
    </vehicle>
    <vehicle id="603" depart="120.60">
        <route edges="-gneE9 -gneE8 -gneE12 -gneE13"/>
    </vehicle>
    <vehicle id="608" depart="121.60">
        <route edges="gneE6 gneE7 -gneE12"/>
    </vehicle>
    <vehicle id="609" depart="121.80">
        <route edges="-gneE12"/>
    </vehicle>
    <vehicle id="613" depart="122.60">
        <route edges="gneE6 gneE7"/>
    </vehicle>
    <vehicle id="616" depart="123.20">
        <route edges="gneE12 gneE8"/>
    </vehicle>
    <vehicle id="617" depart="123.40">
        <route edges="gneE12 gneE10 -gneE11"/>
    </vehicle>
    <vehicle id="618" depart="123.60">
        <route edges="-gneE10 -gneE7"/>
    </vehicle>
    <vehicle id="619" depart="123.80">
        <route edges="-gneE8 -gneE12 -gneE13"/>
    </vehicle>
    <vehicle id="621" depart="124.20">
        <route edges="-gneE8 -gneE7"/>
    </vehicle>
    <vehicle id="623" depart="124.60">
        <route edges="-gneE10 gneE8"/>
    </vehicle>
    <vehicle id="624" depart="124.80">
        <route edges="gneE7 gneE10"/>
    </vehicle>
    <vehicle id="625" depart="125.00">
        <route edges="gneE11 -gneE10 -gneE7"/>
    </vehicle>
    <vehicle id="628" depart="125.60">
        <route edges="gneE6 gneE7 gneE10"/>
    </vehicle>
    <vehicle id="629" depart="125.80">
        <route edges="-gneE8 -gneE7"/>
    </vehicle>
    <vehicle id="633" depart="126.60">
        <route edges="gneE11 -gneE10 -gneE12"/>
    </vehicle>
    <vehicle id="634" depart="126.80">
        <route edges="-gneE7"/>
    </vehicle>
    <vehicle id="637" depart="127.40">
        <route edges="-gneE8 -gneE7 -gneE6"/>
    </vehicle>
    <vehicle id="638" depart="127.60">
        <route edges="-gneE9 -gneE8 gneE10"/>
    </vehicle>
    <vehicle id="639" depart="127.80">
        <route edges="gneE6 gneE7 gneE10"/>
    </vehicle>
    <vehicle id="642" depart="128.40">
        <route edges="gneE13 gneE12 gneE10"/>
    </vehicle>
    <vehicle id="643" depart="128.60">
        <route edges="gneE7 gneE8"/>
    </vehicle>
    <vehicle id="644" depart="128.80">
        <route edges="-gneE9 -gneE8"/>
    </vehicle>
    <vehicle id="647" depart="129.40">
        <route edges="-gneE9 -gneE8 gneE10"/>
    </vehicle>
    <vehicle id="653" depart="130.60">
        <route edges="gneE12 -gneE7"/>
    </vehicle>
    <vehicle id="654" depart="130.80">
        <route edges="-gneE9 -gneE8 -gneE7 -gneE6"/>
    </vehicle>
    <vehicle id="658" depart="131.60">
        <route edges="-gneE10 gneE8"/>
    </vehicle>
    <vehicle id="660" depart="132.00">
        <route edges="gneE7 gneE8"/>
    </vehicle>
    <vehicle id="661" depart="132.20">
        <route edges="-gneE10 -gneE7 -gneE6"/>
    </vehicle>
    <vehicle id="662" depart="132.40">
        <route edges="gneE6 gneE7 gneE10 -gneE11"/>
    </vehicle>
    <vehicle id="663" depart="132.60">
        <route edges="-gneE9 -gneE8 gneE10 -gneE11"/>
    </vehicle>
    <vehicle id="664" depart="132.80">
        <route edges="gneE6 gneE7"/>
    </vehicle>
    <vehicle id="665" depart="133.00">
        <route edges="gneE6 gneE7 gneE10 -gneE11"/>
    </vehicle>
    <vehicle id="669" depart="133.80">
        <route edges="gneE13 gneE12 -gneE7"/>
    </vehicle>
    <vehicle id="670" depart="134.00">
        <route edges="gneE11 -gneE10 -gneE12 -gneE13"/>
    </vehicle>
    <vehicle id="673" depart="134.60">
        <route edges="gneE8 gneE9"/>
    </vehicle>
    <vehicle id="675" depart="135.00">
        <route edges="-gneE9 -gneE8"/>
    </vehicle>
    <vehicle id="677" depart="135.40">
        <route edges="gneE6 gneE7 gneE10 -gneE11"/>
    </vehicle>
    <vehicle id="678" depart="135.60">
        <route edges="-gneE8 gneE10"/>
    </vehicle>
    <vehicle id="681" depart="136.20">
        <route edges="gneE7 -gneE12 -gneE13"/>
    </vehicle>