<configuration xmlns:xsi="http://www.w3.org/2001/XMLSchema-instance" xsi:noNamespaceSchemaLocation="http://sumo.dlr.de/xsd/sumoConfiguration.xsd">

    <input>
        <net-file value="single.net.xml" />
        <route-files value="trips_single.xml" />

    </input>
   <output>

   </output>
</configuration>
