<?xml version="1.0" encoding="UTF-8"?>

<!-- generated on 2022-05-10 15:44:16 by Eclipse SUMO duarouter Version 1.9.1
<configuration xmlns:xsi="http://www.w3.org/2001/XMLSchema-instance" xsi:noNamespaceSchemaLocation="http://sumo.dlr.de/xsd/duarouterConfiguration.xsd">

    <input>
        <net-file value="net.net.xml"/>
        <additional-files value="vtype.xml"/>
        <route-files value="trips.xml"/>
    </input>

    <output>
        <output-file value="routes.rou.xml"/>
        <alternatives-output value="routes.rou.alt.xml"/>
    </output>

    <time>
        <begin value="0"/>
        <end value="3600"/>
    </time>

    <report>
        <no-warnings value="true"/>
        <ignore-errors value="true"/>
        <no-step-log value="true"/>
    </report>

</configuration>
-->

<routes xmlns:xsi="http://www.w3.org/2001/XMLSchema-instance" xsi:noNamespaceSchemaLocation="http://sumo.dlr.de/xsd/routes_file.xsd">
    <vehicle id="2" depart="0.40">
        <route edges="gneE15 -gneE17 gneE1 gneE5 gneE14"/>
    </vehicle>
    <vehicle id="5" depart="1.00">
        <route edges="-gneE12 gneE15 -gneE16 gneE11"/>
    </vehicle>
    <vehicle id="13" depart="2.60">
        <route edges="-gneE10 -gneE6 -gneE1 gneE17 -gneE15"/>
    </vehicle>
    <vehicle id="14" depart="2.80">
        <route edges="gneE17 -gneE18 gneE13"/>
    </vehicle>
    <vehicle id="15" depart="3.00">
        <route edges="gneE16"/>
    </vehicle>
    <vehicle id="16" depart="3.20">
        <route edges="-gneE5 gneE0 gneE9"/>
    </vehicle>
    <vehicle id="18" depart="3.60">
        <route edges="gneE17 -gneE18 gneE13"/>
    </vehicle>
    <vehicle id="19" depart="3.80">
        <route edges="gneE17 -gneE15 gneE12"/>
    </vehicle>
    <vehicle id="22" depart="4.40">
        <route edges="-gneE1 gneE17 -gneE18"/>
    </vehicle>
    <vehicle id="26" depart="5.20">
        <route edges="-gneE13 gneE18 -gneE17 gneE1 gneE6"/>
    </vehicle>
    <vehicle id="28" depart="5.60">
        <route edges="-gneE11 gneE16"/>
    </vehicle>
    <vehicle id="29" depart="5.80">
        <route edges="-gneE11 gneE16 -gneE17 gneE1 gneE0"/>
    </vehicle>
    <vehicle id="32" depart="6.40">
        <route edges="gneE17"/>
    </vehicle>
    <vehicle id="34" depart="6.80">
        <route edges="-gneE14 -gneE5 -gneE1 gneE17 -gneE18"/>
    </vehicle>
    <vehicle id="35" depart="7.00">
        <route edges="-gneE12 gneE15 -gneE17 gneE1 gneE6"/>
    </vehicle>
    <vehicle id="37" depart="7.40">
        <route edges="gneE0"/>
    </vehicle>
    <vehicle id="40" depart="8.00">
        <route edges="-gneE6 -gneE1 gneE17 -gneE18"/>
    </vehicle>
    <vehicle id="41" depart="8.20">
        <route edges="-gneE6 gneE5"/>
    </vehicle>
    <vehicle id="44" depart="8.80">
        <route edges="-gneE10 -gneE6 -gneE1"/>
    </vehicle>
    <vehicle id="45" depart="9.00">
        <route edges="-gneE10 -gneE6 -gneE1 gneE17 -gneE18 gneE13"/>
    </vehicle>
    <vehicle id="46" depart="9.20">
        <route edges="gneE16 -gneE17 gneE1"/>
    </vehicle>
    <vehicle id="52" depart="10.40">
        <route edges="-gneE13 gneE18 -gneE17 gneE1 gneE5 gneE14"/>
    </vehicle>
    <vehicle id="54" depart="10.80">
        <route edges="-gneE17 gneE1 gneE6"/>
    </vehicle>
    <vehicle id="56" depart="11.20">
        <route edges="-gneE5 -gneE1 gneE17 -gneE16"/>
    </vehicle>
    <vehicle id="57" depart="11.40">
        <route edges="gneE5"/>
    </vehicle>
    <vehicle id="59" depart="11.80">
        <route edges="-gneE9 -gneE0 -gneE1 gneE17 -gneE16"/>
    </vehicle>
    <vehicle id="60" depart="12.00">
        <route edges="gneE15 -gneE16 gneE11"/>
    </vehicle>
    <vehicle id="63" depart="12.60">
        <route edges="-gneE0 gneE6"/>
    </vehicle>
    <vehicle id="64" depart="12.80">
        <route edges="gneE18"/>
    </vehicle>
    <vehicle id="65" depart="13.00">
        <route edges="-gneE14 -gneE5 -gneE1"/>
    </vehicle>
    <vehicle id="66" depart="13.20">
        <route edges="gneE18 -gneE17 gneE1 gneE6"/>
    </vehicle>
    <vehicle id="71" depart="14.20">
        <route edges="-gneE13 gneE18 -gneE17 gneE1 gneE5"/>
    </vehicle>
    <vehicle id="72" depart="14.40">
        <route edges="-gneE17"/>
    </vehicle>
    <vehicle id="78" depart="15.60">
        <route edges="-gneE15 gneE12"/>
    </vehicle>
    <vehicle id="79" depart="15.80">
        <route edges="-gneE13 gneE18 -gneE17"/>
    </vehicle>
    <vehicle id="80" depart="16.00">
        <route edges="-gneE1 gneE17 -gneE18 gneE13"/>
    </vehicle>
    <vehicle id="81" depart="16.20">
        <route edges="-gneE13 gneE18 -gneE17 gneE1 gneE5"/>
    </vehicle>
    <vehicle id="83" depart="16.60">
        <route edges="-gneE13 gneE18 -gneE17 gneE1 gneE5 gneE14"/>
    </vehicle>
    <vehicle id="87" depart="17.40">
        <route edges="gneE16 -gneE17"/>
    </vehicle>
    <vehicle id="89" depart="17.80">
        <route edges="-gneE17 gneE1 gneE6 gneE10"/>
    </vehicle>
    <vehicle id="90" depart="18.00">
        <route edges="gneE15 -gneE17 gneE1 gneE5 gneE14"/>
    </vehicle>
    <vehicle id="93" depart="18.60">
        <route edges="gneE17 -gneE18"/>
    </vehicle>
    <vehicle id="94" depart="18.80">
        <route edges="-gneE12 gneE15 -gneE17 gneE1"/>
    </vehicle>
    <vehicle id="96" depart="19.20">
        <route edges="-gneE13 gneE18 -gneE17 gneE1 gneE6"/>
    </vehicle>
    <vehicle id="98" depart="19.60">
        <route edges="-gneE6 -gneE1"/>
    </vehicle>
    <vehicle id="100" depart="20.00">
        <route edges="gneE6"/>
    </vehicle>
    <vehicle id="101" depart="20.20">
        <route edges="gneE17 -gneE16"/>
    </vehicle>
    <vehicle id="112" depart="22.40">
        <route edges="-gneE1 gneE17 -gneE15 gneE12"/>
    </vehicle>
    <vehicle id="114" depart="22.80">
        <route edges="-gneE11 gneE16 -gneE17 gneE1 gneE0 gneE9"/>
    </vehicle>
    <vehicle id="116" depart="23.20">
        <route edges="-gneE9 -gneE0 gneE5 gneE14"/>
    </vehicle>
    <vehicle id="117" depart="23.40">
        <route edges="-gneE13 gneE18 -gneE15"/>
    </vehicle>
    <vehicle id="119" depart="23.80">
        <route edges="-gneE9 -gneE0 -gneE1 gneE17 -gneE18 gneE13"/>
    </vehicle>
    <vehicle id="121" depart="24.20">
        <route edges="-gneE5 gneE6"/>
    </vehicle>
    <vehicle id="122" depart="24.40">
        <route edges="-gneE12 gneE15"/>
    </vehicle>
    <vehicle id="123" depart="24.60">
        <route edges="-gneE13 gneE18 -gneE17 gneE1 gneE0"/>
    </vehicle>
    <vehicle id="129" depart="25.80">
        <route edges="-gneE13 gneE18 -gneE17 gneE1 gneE6"/>
    </vehicle>
    <vehicle id="130" depart="26.00">
        <route edges="gneE18 -gneE17 gneE1 gneE5"/>
    </vehicle>
    <vehicle id="131" depart="26.20">
        <route edges="-gneE16"/>
    </vehicle>
    <vehicle id="137" depart="27.40">
        <route edges="-gneE10 -gneE6 -gneE1 gneE17 -gneE15"/>
    </vehicle>
    <vehicle id="138" depart="27.60">
        <route edges="-gneE10 -gneE6 -gneE1 gneE17 -gneE15 gneE12"/>
    </vehicle>
    <vehicle id="141" depart="28.20">
        <route edges="-gneE9 -gneE0 -gneE1 gneE17 -gneE18"/>
    </vehicle>
    <vehicle id="143" depart="28.60">
        <route edges="gneE17 -gneE15"/>
    </vehicle>
    <vehicle id="150" depart="30.00">
        <route edges="gneE18 -gneE15 gneE12"/>
    </vehicle>
    <vehicle id="151" depart="30.20">
        <route edges="gneE17 -gneE15 gneE12"/>
    </vehicle>
    <vehicle id="152" depart="30.40">
        <route edges="-gneE11 gneE16 -gneE15"/>
    </vehicle>
    <vehicle id="155" depart="31.00">
        <route edges="gneE18 -gneE17"/>
    </vehicle>
    <vehicle id="156" depart="31.20">
        <route edges="-gneE13 gneE18 -gneE15"/>
    </vehicle>
    <vehicle id="157" depart="31.40">
        <route edges="gneE16 -gneE17 gneE1 gneE5"/>
    </vehicle>
    <vehicle id="159" depart="31.80">
        <route edges="-gneE11 gneE16 -gneE17 gneE1 gneE6"/>
    </vehicle>
    <vehicle id="160" depart="32.00">
        <route edges="gneE18 -gneE17 gneE1 gneE0 gneE9"/>
    </vehicle>
    <vehicle id="161" depart="32.20">
        <route edges="gneE16 -gneE17 gneE1 gneE5"/>
    </vehicle>
    <vehicle id="164" depart="32.80">
        <route edges="gneE16 -gneE17 gneE1 gneE5"/>
    </vehicle>
    <vehicle id="165" depart="33.00">
        <route edges="gneE16 -gneE18"/>
    </vehicle>
    <vehicle id="166" depart="33.20">
        <route edges="gneE16 -gneE15"/>
    </vehicle>
    <vehicle id="167" depart="33.40">
        <route edges="gneE18"/>
    </vehicle>
    <vehicle id="170" depart="34.00">
        <route edges="gneE16 -gneE18"/>
    </vehicle>
    <vehicle id="174" depart="34.80">
        <route edges="gneE0"/>
    </vehicle>
    <vehicle id="181" depart="36.20">
        <route edges="-gneE9 -gneE0 -gneE1 gneE17 -gneE16 gneE11"/>
    </vehicle>
    <vehicle id="184" depart="36.80">
        <route edges="-gneE0 gneE6"/>
    </vehicle>
    <vehicle id="186" depart="37.20">
        <route edges="gneE15 -gneE17 gneE1 gneE5 gneE14"/>
    </vehicle>
    <vehicle id="191" depart="38.20">
        <route edges="-gneE14 -gneE5 gneE0"/>
    </vehicle>
    <vehicle id="194" depart="38.80">
        <route edges="gneE5 gneE14"/>
    </vehicle>
    <vehicle id="196" depart="39.20">
        <route edges="-gneE14 -gneE5 -gneE1 gneE17 -gneE15 gneE12"/>
    </vehicle>
    <vehicle id="200" depart="40.00">
        <route edges="-gneE17"/>
    </vehicle>
    <vehicle id="203" depart="40.60">
        <route edges="-gneE1 gneE17 -gneE16 gneE11"/>
    </vehicle>
    <vehicle id="208" depart="41.60">
        <route edges="-gneE13 gneE18 -gneE17 gneE1 gneE6 gneE10"/>
    </vehicle>
    <vehicle id="211" depart="42.20">
        <route edges="-gneE12 gneE15"/>
    </vehicle>
    <vehicle id="212" depart="42.40">
        <route edges="-gneE18"/>
    </vehicle>
    <vehicle id="216" depart="43.20">
        <route edges="-gneE11 gneE16 -gneE17 gneE1 gneE0 gneE9"/>
    </vehicle>
    <vehicle id="217" depart="43.40">
        <route edges="-gneE5 -gneE1"/>
    </vehicle>
    <vehicle id="218" depart="43.60">
        <route edges="-gneE13 gneE18"/>
    </vehicle>
    <vehicle id="220" depart="44.00">
        <route edges="gneE0 gneE9"/>
    </vehicle>
    <vehicle id="221" depart="44.20">
        <route edges="-gneE9 -gneE0 gneE6"/>
    </vehicle>
    <vehicle id="224" depart="44.80">
        <route edges="gneE17 -gneE15 gneE12"/>
    </vehicle>
    <vehicle id="226" depart="45.20">
        <route edges="-gneE18"/>
    </vehicle>
    <vehicle id="227" depart="45.40">
        <route edges="-gneE13 gneE18 -gneE17 gneE1 gneE5 gneE14"/>
    </vehicle>
    <vehicle id="228" depart="45.60">
        <route edges="gneE15 -gneE16 gneE11"/>
    </vehicle>
    <vehicle id="232" depart="46.40">
        <route edges="-gneE5 -gneE1 gneE17 -gneE16"/>
    </vehicle>
    <vehicle id="235" depart="47.00">
        <route edges="-gneE16 gneE11"/>
    </vehicle>
    <vehicle id="236" depart="47.20">
        <route edges="-gneE17"/>
    </vehicle>
    <vehicle id="237" depart="47.40">
        <route edges="-gneE17 gneE1 gneE5"/>
    </vehicle>
    <vehicle id="244" depart="48.80">
        <route edges="-gneE6 -gneE1 gneE17 -gneE18 gneE13"/>
    </vehicle>
    <vehicle id="245" depart="49.00">
        <route edges="-gneE12 gneE15 -gneE17"/>
    </vehicle>
    <vehicle id="248" depart="49.60">
        <route edges="-gneE16"/>
    </vehicle>
    <vehicle id="250" depart="50.00">
        <route edges="-gneE9 -gneE0"/>
    </vehicle>
    <vehicle id="252" depart="50.40">
        <route edges="-gneE0 gneE5 gneE14"/>
    </vehicle>
    <vehicle id="256" depart="51.20">
        <route edges="gneE15 -gneE17 gneE1 gneE0"/>
    </vehicle>
    <vehicle id="259" depart="51.80">
        <route edges="-gneE0 -gneE1 gneE17 -gneE16 gneE11"/>
    </vehicle>
    <vehicle id="264" depart="52.80">
        <route edges="-gneE0 -gneE1 gneE17 -gneE16"/>
    </vehicle>
    <vehicle id="265" depart="53.00">
        <route edges="-gneE10 -gneE6 gneE5 gneE14"/>
    </vehicle>
    <vehicle id="268" depart="53.60">
        <route edges="-gneE11 gneE16 -gneE18 gneE13"/>
    </vehicle>
    <vehicle id="277" depart="55.40">
        <route edges="gneE17 -gneE18 gneE13"/>
    </vehicle>
    <vehicle id="278" depart="55.60">
        <route edges="-gneE10 -gneE6 gneE0 gneE9"/>
    </vehicle>
    <vehicle id="280" depart="56.00">
        <route edges="-gneE17 gneE1 gneE0"/>
    </vehicle>
    <vehicle id="283" depart="56.60">
        <route edges="-gneE10 -gneE6 gneE0 gneE9"/>
    </vehicle>
    <vehicle id="285" depart="57.00">
        <route edges="gneE1"/>
    </vehicle>
    <vehicle id="286" depart="57.20">
        <route edges="gneE15 -gneE17 gneE1 gneE0 gneE9"/>
    </vehicle>
    <vehicle id="288" depart="57.60">
        <route edges="-gneE5 gneE6 gneE10"/>
    </vehicle>
    <vehicle id="290" depart="58.00">
        <route edges="-gneE13 gneE18"/>
    </vehicle>
    <vehicle id="293" depart="58.60">
        <route edges="-gneE18 gneE13"/>
    </vehicle>
    <vehicle id="299" depart="59.80">
        <route edges="-gneE0 gneE6"/>
    </vehicle>
    <vehicle id="302" depart="60.40">
        <route edges="gneE1 gneE5 gneE14"/>
    </vehicle>
    <vehicle id="310" depart="62.00">
        <route edges="-gneE13 gneE18 -gneE15"/>
    </vehicle>
    <vehicle id="313" depart="62.60">
        <route edges="-gneE12 gneE15 -gneE17"/>
    </vehicle>
    <vehicle id="316" depart="63.20">
        <route edges="-gneE14 -gneE5 -gneE1 gneE17 -gneE15"/>
    </vehicle>
    <vehicle id="317" depart="63.40">
        <route edges="-gneE12 gneE15 -gneE18"/>
    </vehicle>
    <vehicle id="319" depart="63.80">
        <route edges="-gneE5"/>
    </vehicle>
    <vehicle id="322" depart="64.40">
        <route edges="gneE18 -gneE17 gneE1 gneE6 gneE10"/>
    </vehicle>
    <vehicle id="323" depart="64.60">
        <route edges="gneE18 -gneE15 gneE12"/>
    </vehicle>
    <vehicle id="328" depart="65.60">
        <route edges="-gneE1 gneE17 -gneE18 gneE13"/>
    </vehicle>
    <vehicle id="329" depart="65.80">
        <route edges="-gneE1 gneE17 -gneE16"/>
    </vehicle>
    <vehicle id="332" depart="66.40">
        <route edges="gneE15 -gneE18 gneE13"/>
    </vehicle>
    <vehicle id="333" depart="66.60">
        <route edges="gneE16 -gneE17"/>
    </vehicle>
    <vehicle id="337" depart="67.40">
        <route edges="-gneE9 -gneE0 -gneE1 gneE17 -gneE18 gneE13"/>
    </vehicle>
    <vehicle id="338" depart="67.60">
        <route edges="gneE15 -gneE17 gneE1 gneE6"/>
    </vehicle>
    <vehicle id="339" depart="67.80">
        <route edges="-gneE12 gneE15 -gneE17"/>
    </vehicle>
    <vehicle id="345" depart="69.00">
        <route edges="gneE1"/>
    </vehicle>
    <vehicle id="346" depart="69.20">
        <route edges="gneE1 gneE6"/>
    </vehicle>
    <vehicle id="347" depart="69.40">
        <route edges="gneE16 -gneE18 gneE13"/>
    </vehicle>
    <vehicle id="354" depart="70.80">
        <route edges="-gneE14 -gneE5 -gneE1 gneE17 -gneE15"/>
    </vehicle>
    <vehicle id="360" depart="72.00">
        <route edges="-gneE10 -gneE6 gneE0 gneE9"/>
    </vehicle>
    <vehicle id="361" depart="72.20">
        <route edges="gneE17 -gneE15 gneE12"/>
    </vehicle>
    <vehicle id="367" depart="73.40">
        <route edges="-gneE6 -gneE1 gneE17 -gneE18 gneE13"/>
    </vehicle>
    <vehicle id="372" depart="74.40">
        <route edges="-gneE14 -gneE5 gneE6"/>
    </vehicle>
    <vehicle id="373" depart="74.60">
        <route edges="gneE16 -gneE15 gneE12"/>
    </vehicle>
    <vehicle id="376" depart="75.20">
        <route edges="-gneE16 gneE11"/>
    </vehicle>
    <vehicle id="380" depart="76.00">
        <route edges="gneE15 -gneE18 gneE13"/>
    </vehicle>
    <vehicle id="381" depart="76.20">
        <route edges="gneE15 -gneE17"/>
    </vehicle>
    <vehicle id="384" depart="76.80">
        <route edges="-gneE10 -gneE6 gneE0 gneE9"/>
    </vehicle>
    <vehicle id="385" depart="77.00">
        <route edges="-gneE9 -gneE0 -gneE1 gneE17 -gneE18"/>
    </vehicle>
    <vehicle id="386" depart="77.20">
        <route edges="-gneE11 gneE16 -gneE15 gneE12"/>
    </vehicle>
    <vehicle id="387" depart="77.40">
        <route edges="-gneE6 -gneE1 gneE17 -gneE15"/>
    </vehicle>
    <vehicle id="388" depart="77.60">
        <route edges="gneE6"/>
    </vehicle>
    <vehicle id="394" depart="78.80">
        <route edges="-gneE6 gneE0"/>
    </vehicle>
    <vehicle id="396" depart="79.20">
        <route edges="gneE18 -gneE17 gneE1 gneE5"/>
    </vehicle>
    <vehicle id="397" depart="79.40">
        <route edges="-gneE14 -gneE5 -gneE1 gneE17"/>
    </vehicle>
    <vehicle id="398" depart="79.60">
        <route edges="-gneE17 gneE1 gneE6"/>
    </vehicle>
    <vehicle id="400" depart="80.00">
        <route edges="-gneE14 -gneE5"/>
    </vehicle>
    <vehicle id="401" depart="80.20">
        <route edges="-gneE6 gneE0 gneE9"/>
    </vehicle>
    <vehicle id="404" depart="80.80">
        <route edges="-gneE6 -gneE1 gneE17 -gneE16 gneE11"/>
    </vehicle>
    <vehicle id="406" depart="81.20">
        <route edges="-gneE12 gneE15"/>
    </vehicle>
    <vehicle id="407" depart="81.40">
        <route edges="-gneE6 -gneE1 gneE17 -gneE18"/>
    </vehicle>
    <vehicle id="409" depart="81.80">
        <route edges="gneE15"/>
    </vehicle>
    <vehicle id="410" depart="82.00">
        <route edges="gneE16 -gneE17 gneE1 gneE0"/>
    </vehicle>
    <vehicle id="412" depart="82.40">
        <route edges="gneE6 gneE10"/>
    </vehicle>
    <vehicle id="413" depart="82.60">
        <route edges="-gneE0 -gneE1 gneE17 -gneE16 gneE11"/>
    </vehicle>
    <vehicle id="414" depart="82.80">
        <route edges="-gneE6 gneE5"/>
    </vehicle>
    <vehicle id="415" depart="83.00">
        <route edges="gneE18 -gneE17 gneE1"/>
    </vehicle>
    <vehicle id="416" depart="83.20">
        <route edges="-gneE5 gneE6 gneE10"/>
    </vehicle>
    <vehicle id="417" depart="83.40">
        <route edges="gneE1"/>
    </vehicle>
    <vehicle id="426" depart="85.20">
        <route edges="-gneE1 gneE17 -gneE18 gneE13"/>
    </vehicle>
    <vehicle id="428" depart="85.60">
        <route edges="gneE15 -gneE17 gneE1"/>
    </vehicle>
    <vehicle id="429" depart="85.80">
        <route edges="-gneE10 -gneE6 -gneE1 gneE17 -gneE18 gneE13"/>
    </vehicle>
    <vehicle id="430" depart="86.00">
        <route edges="gneE18 -gneE17 gneE1"/>
    </vehicle>
    <vehicle id="431" depart="86.20">
        <route edges="gneE1 gneE5"/>
    </vehicle>
    <vehicle id="432" depart="86.40">
        <route edges="-gneE1 gneE17"/>
    </vehicle>
    <vehicle id="433" depart="86.60">
        <route edges="-gneE14 -gneE5 gneE0"/>
    </vehicle>
    <vehicle id="435" depart="87.00">
        <route edges="-gneE6 -gneE1 gneE17"/>
    </vehicle>
    <vehicle id="438" depart="87.60">
        <route edges="-gneE13 gneE18 -gneE17 gneE1 gneE6"/>
    </vehicle>
    <vehicle id="439" depart="87.80">
        <route edges="-gneE11 gneE16 -gneE17 gneE1 gneE6 gneE10"/>
    </vehicle>
    <vehicle id="441" depart="88.20">
        <route edges="-gneE0 -gneE1 gneE17"/>
    </vehicle>
    <vehicle id="442" depart="88.40">
        <route edges="gneE18 -gneE17 gneE1 gneE5 gneE14"/>
    </vehicle>
    <vehicle id="443" depart="88.60">
        <route edges="-gneE11 gneE16 -gneE17 gneE1"/>
    </vehicle>
    <vehicle id="444" depart="88.80">
        <route edges="-gneE15 gneE12"/>
    </vehicle>
    <vehicle id="446" depart="89.20">
        <route edges="-gneE13 gneE18"/>
    </vehicle>
    <vehicle id="447" depart="89.40">
        <route edges="-gneE12 gneE15 -gneE17 gneE1 gneE0"/>
    </vehicle>
    <vehicle id="448" depart="89.60">
        <route edges="-gneE18"/>
    </vehicle>
    <vehicle id="449" depart="89.80">
        <route edges="-gneE6 -gneE1 gneE17 -gneE15 gneE12"/>
    </vehicle>
    <vehicle id="452" depart="90.40">
        <route edges="-gneE14 -gneE5 -gneE1 gneE17 -gneE15 gneE12"/>
    </vehicle>
    <vehicle id="454" depart="90.80">
        <route edges="-gneE1 gneE17 -gneE18 gneE13"/>
    </vehicle>
    <vehicle id="456" depart="91.20">
        <route edges="-gneE14 -gneE5 -gneE1 gneE17"/>
    </vehicle>
    <vehicle id="461" depart="92.20">
        <route edges="-gneE9 -gneE0 gneE5"/>
    </vehicle>
    <vehicle id="466" depart="93.20">
        <route edges="-gneE11 gneE16 -gneE15"/>
    </vehicle>
    <vehicle id="467" depart="93.40">
        <route edges="-gneE5 gneE0 gneE9"/>
    </vehicle>
    <vehicle id="468" depart="93.60">
        <route edges="-gneE5 gneE6"/>
    </vehicle>
    <vehicle id="469" depart="93.80">
        <route edges="gneE17 -gneE18"/>
    </vehicle>
    <vehicle id="471" depart="94.20">
        <route edges="gneE16"/>
    </vehicle>
    <vehicle id="472" depart="94.40">
        <route edges="-gneE15"/>
    </vehicle>
    <vehicle id="475" depart="95.00">
        <route edges="gneE1 gneE0 gneE9"/>
    </vehicle>
    <vehicle id="478" depart="95.60">
        <route edges="-gneE0 -gneE1 gneE17 -gneE16 gneE11"/>
    </vehicle>
    <vehicle id="482" depart="96.40">
        <route edges="-gneE10 -gneE6 -gneE1 gneE17 -gneE18"/>
    </vehicle>
    <vehicle id="483" depart="96.60">
        <route edges="-gneE0 gneE5"/>
    </vehicle>
    <vehicle id="487" depart="97.40">
        <route edges="-gneE14 -gneE5 gneE0"/>
    </vehicle>
    <vehicle id="488" depart="97.60">
        <route edges="-gneE11 gneE16 -gneE17 gneE1 gneE6"/>
    </vehicle>
    <vehicle id="489" depart="97.80">
        <route edges="-gneE14 -gneE5 gneE6 gneE10"/>
    </vehicle>
    <vehicle id="490" depart="98.00">
        <route edges="-gneE10 -gneE6 gneE5"/>
    </vehicle>
    <vehicle id="494" depart="98.80">
        <route edges="gneE15 -gneE16"/>
    </vehicle>
    <vehicle id="501" depart="100.20">
        <route edges="-gneE5 gneE0 gneE9"/>
    </vehicle>
    <vehicle id="506" depart="101.20">
        <route edges="-gneE9 -gneE0"/>
    </vehicle>
    <vehicle id="507" depart="101.40">
        <route edges="gneE16 -gneE18"/>
    </vehicle>
    <vehicle id="508" depart="101.60">
        <route edges="-gneE10 -gneE6 -gneE1 gneE17 -gneE15 gneE12"/>
    </vehicle>
    <vehicle id="510" depart="102.00">
        <route edges="-gneE12 gneE15 -gneE17"/>
    </vehicle>
    <vehicle id="512" depart="102.40">
        <route edges="-gneE11 gneE16 -gneE17 gneE1 gneE5"/>
    </vehicle>
    <vehicle id="514" depart="102.80">
        <route edges="-gneE11 gneE16 -gneE15"/>
    </vehicle>
    <vehicle id="515" depart="103.00">
        <route edges="-gneE13 gneE18 -gneE16"/>
    </vehicle>
    <vehicle id="517" depart="103.40">
        <route edges="-gneE0 -gneE1 gneE17"/>
    </vehicle>
    <vehicle id="520" depart="104.00">
        <route edges="gneE15 -gneE16 gneE11"/>
    </vehicle>
    <vehicle id="521" depart="104.20">
        <route edges="gneE15 -gneE17 gneE1 gneE6 gneE10"/>
    </vehicle>
    <vehicle id="523" depart="104.60">
        <route edges="-gneE10 -gneE6 -gneE1 gneE17 -gneE16 gneE11"/>
    </vehicle>
    <vehicle id="525" depart="105.00">
        <route edges="gneE16 -gneE17 gneE1 gneE5"/>
    </vehicle>
    <vehicle id="526" depart="105.20">
        <route edges="-gneE5 gneE6 gneE10"/>
    </vehicle>
    <vehicle id="529" depart="105.80">
        <route edges="gneE1 gneE6 gneE10"/>
    </vehicle>
    <vehicle id="531" depart="106.20">
        <route edges="-gneE1 gneE17 -gneE18 gneE13"/>
    </vehicle>
    <vehicle id="533" depart="106.60">
        <route edges="-gneE9 -gneE0 -gneE1 gneE17 -gneE15 gneE12"/>
    </vehicle>
    <vehicle id="536" depart="107.20">
        <route edges="-gneE9 -gneE0 -gneE1 gneE17 -gneE15"/>
    </vehicle>
    <vehicle id="543" depart="108.60">
        <route edges="-gneE17 gneE1 gneE5 gneE14"/>
    </vehicle>
    <vehicle id="544" depart="108.80">
        <route edges="-gneE16"/>
    </vehicle>
    <vehicle id="546" depart="109.20">
        <route edges="gneE17 -gneE15"/>
    </vehicle>
    <vehicle id="548" depart="109.60">
        <route edges="gneE16 -gneE15 gneE12"/>
    </vehicle>
    <vehicle id="549" depart="109.80">
        <route edges="-gneE6 -gneE1 gneE17 -gneE15 gneE12"/>
    </vehicle>
    <vehicle id="550" depart="110.00">
        <route edges="-gneE15"/>
    </vehicle>
    <vehicle id="552" depart="110.40">
        <route edges="gneE15 -gneE17 gneE1 gneE5"/>
    </vehicle>
    <vehicle id="553" depart="110.60">
        <route edges="gneE1 gneE0 gneE9"/>
    </vehicle>
    <vehicle id="559" depart="111.80">
        <route edges="-gneE6 -gneE1 gneE17"/>
    </vehicle>
    <vehicle id="561" depart="112.20">
        <route edges="gneE17 -gneE18 gneE13"/>
    </vehicle>
    <vehicle id="564" depart="112.80">
        <route edges="-gneE13 gneE18 -gneE16"/>
    </vehicle>
    <vehicle id="567" depart="113.40">
        <route edges="gneE18 -gneE15 gneE12"/>
    </vehicle>
    <vehicle id="568" depart="113.60">
        <route edges="-gneE16"/>
    </vehicle>
    <vehicle id="569" depart="113.80">
        <route edges="-gneE9 -gneE0"/>
    </vehicle>
    <vehicle id="570" depart="114.00">
        <route edges="gneE15 -gneE17"/>
    </vehicle>
    <vehicle id="573" depart="114.60">
        <route edges="gneE16 -gneE15 gneE12"/>
    </vehicle>
    <vehicle id="574" depart="114.80">
        <route edges="-gneE1"/>
    </vehicle>
    <vehicle id="575" depart="115.00">
        <route edges="-gneE11 gneE16 -gneE18 gneE13"/>
    </vehicle>
    <vehicle id="585" depart="117.00">
        <route edges="-gneE12 gneE15 -gneE16"/>
    </vehicle>
    <vehicle id="588" depart="117.60">
        <route edges="-gneE11 gneE16 -gneE17 gneE1 gneE0"/>
    </vehicle>
    <vehicle id="590" depart="118.00">
        <route edges="gneE17"/>
    </vehicle>
    <vehicle id="592" depart="118.40">
        <route edges="-gneE0"/>
    </vehicle>
    <vehicle id="594" depart="118.80">
        <route edges="-gneE6 -gneE1 gneE17 -gneE15 gneE12"/>
    </vehicle>
    <vehicle id="595" depart="119.00">
        <route edges="gneE1"/>
    </vehicle>
    <vehicle id="600" depart="120.00">
        <route edges="gneE17 -gneE18"/>
    </vehicle>
    <vehicle id="601" depart="120.20">
        <route edges="-gneE6 -gneE1 gneE17 -gneE16 gneE11"/>
    </vehicle>
    <vehicle id="605" depart="121.00">
        <route edges="-gneE10 -gneE6 -gneE1 gneE17 -gneE16 gneE11"/>
    </vehicle>
    <vehicle id="608" depart="121.60">
        <route edges="gneE16 -gneE18"/>
    </vehicle>
    <vehicle id="609" depart="121.80">
        <route edges="-gneE11 gneE16 -gneE17"/>
    </vehicle>
    <vehicle id="612" depart="122.40">
        <route edges="gneE16 -gneE17 gneE1 gneE6 gneE10"/>
    </vehicle>
    <vehicle id="614" depart="122.80">
        <route edges="-gneE17 gneE1 gneE6"/>
    </vehicle>
    <vehicle id="615" depart="123.00">
        <route edges="-gneE6 -gneE1 gneE17 -gneE18 gneE13"/>
    </vehicle>
    <vehicle id="616" depart="123.20">
        <route edges="-gneE9 -gneE0 gneE5"/>
    </vehicle>
    <vehicle id="617" depart="123.40">
        <route edges="-gneE9 -gneE0 -gneE1 gneE17 -gneE16"/>
    </vehicle>
    <vehicle id="619" depart="123.80">
        <route edges="-gneE14 -gneE5"/>
    </vehicle>
    <vehicle id="620" depart="124.00">
        <route edges="-gneE1 gneE17 -gneE16 gneE11"/>
    </vehicle>
    <vehicle id="624" depart="124.80">
        <route edges="gneE17 -gneE18 gneE13"/>
    </vehicle>
    <vehicle id="625" depart="125.00">
        <route edges="-gneE5 gneE6 gneE10"/>
    </vehicle>
    <vehicle id="626" depart="125.20">
        <route edges="-gneE6 -gneE1 gneE17"/>
    </vehicle>
    <vehicle id="627" depart="125.40">
        <route edges="gneE18 -gneE17 gneE1"/>
    </vehicle>
    <vehicle id="628" depart="125.60">
        <route edges="gneE16 -gneE17 gneE1 gneE5 gneE14"/>
    </vehicle>
    <vehicle id="631" depart="126.20">
        <route edges="-gneE10 -gneE6 gneE5"/>
    </vehicle>
    <vehicle id="633" depart="126.60">
        <route edges="-gneE5 -gneE1 gneE17 -gneE16"/>
    </vehicle>
    <vehicle id="634" depart="126.80">
        <route edges="-gneE13 gneE18 -gneE17 gneE1"/>
    </vehicle>
    <vehicle id="636" depart="127.20">
        <route edges="-gneE11 gneE16 -gneE17 gneE1 gneE0"/>
    </vehicle>
    <vehicle id="637" depart="127.40">
        <route edges="-gneE14 -gneE5 gneE0"/>
    </vehicle>
    <vehicle id="639" depart="127.80">
        <route edges="gneE16 -gneE17 gneE1 gneE5 gneE14"/>
    </vehicle>
    <vehicle id="640" depart="128.00">
        <route edges="-gneE1 gneE17 -gneE15"/>
    </vehicle>
    <vehicle id="642" depart="128.40">
        <route edges="gneE1 gneE5 gneE14"/>
    </vehicle>
    <vehicle id="643" depart="128.60">
        <route edges="gneE18 -gneE17 gneE1 gneE5"/>
    </vehicle>
    <vehicle id="644" depart="128.80">
        <route edges="-gneE15 gneE12"/>
    </vehicle>
    <vehicle id="650" depart="130.00">
        <route edges="gneE16 -gneE17 gneE1 gneE5 gneE14"/>
    </vehicle>
    <vehicle id="655" depart="131.00">
        <route edges="-gneE11 gneE16 -gneE17"/>
    </vehicle>
    <vehicle id="657" depart="131.40">
        <route edges="-gneE12 gneE15 -gneE16"/>
    </vehicle>
    <vehicle id="663" depart="132.60">
        <route edges="-gneE16"/>
    </vehicle>
    <vehicle id="666" depart="133.20">
        <route edges="-gneE17 gneE1"/>
    </vehicle>
    <vehicle id="669" depart="133.80">
        <route edges="gneE15 -gneE17 gneE1"/>
    </vehicle>
    <vehicle id="670" depart="134.00">
        <route edges="-gneE5"/>
    </vehicle>
    <vehicle id="671" depart="134.20">
        <route edges="gneE16 -gneE17 gneE1 gneE6 gneE10"/>
    </vehicle>
    <vehicle id="675" depart="135.00">
        <route edges="-gneE16 gneE11"/>
    </vehicle>
    <vehicle id="678" depart="135.60">
        <route edges="-gneE13 gneE18 -gneE17 gneE1 gneE5 gneE14"/>
    </vehicle>
    <vehicle id="679" depart="135.80">