<?xml version="1.0" encoding="UTF-8"?>

<!-- generated on 2022-05-24 11:00:37 by Eclipse SUMO duarouter Version 1.9.1
<configuration xmlns:xsi="http://www.w3.org/2001/XMLSchema-instance" xsi:noNamespaceSchemaLocation="http://sumo.dlr.de/xsd/duarouterConfiguration.xsd">

    <input>
        <net-file value="net.net.xml"/>
        <additional-files value="vtype.xml"/>
        <route-files value="trips.xml"/>
    </input>

    <output>
        <output-file value="routes.rou.xml"/>
        <alternatives-output value="routes.rou.alt.xml"/>
    </output>

    <time>
        <begin value="0"/>
        <end value="3600"/>
    </time>

    <report>
        <no-warnings value="true"/>
        <ignore-errors value="true"/>
        <no-step-log value="true"/>
    </report>

</configuration>
-->

<routes xmlns:xsi="http://www.w3.org/2001/XMLSchema-instance" xsi:noNamespaceSchemaLocation="http://sumo.dlr.de/xsd/routes_file.xsd">
    <vehicle id="1" depart="0.10">
        <route edges="-gneE8 -gneE12"/>
    </vehicle>
    <vehicle id="2" depart="0.20">
        <route edges="gneE13 gneE12"/>
    </vehicle>
    <vehicle id="3" depart="0.30">
        <route edges="gneE7 gneE10 -gneE11"/>
    </vehicle>
    <vehicle id="6" depart="0.60">
        <route edges="-gneE10 -gneE12"/>
    </vehicle>
    <vehicle id="11" depart="1.10">
        <route edges="-gneE9 -gneE8 gneE10 -gneE11"/>
    </vehicle>
    <vehicle id="14" depart="1.40">
        <route edges="gneE7 gneE10"/>
    </vehicle>
    <vehicle id="16" depart="1.60">
        <route edges="gneE11 -gneE10 gneE8 gneE9"/>
    </vehicle>
    <vehicle id="17" depart="1.70">
        <route edges="-gneE9 -gneE8"/>
    </vehicle>
    <vehicle id="18" depart="1.80">
        <route edges="gneE6 gneE7 gneE10"/>
    </vehicle>
    <vehicle id="22" depart="2.20">
        <route edges="-gneE10 -gneE12"/>
    </vehicle>
    <vehicle id="23" depart="2.30">
        <route edges="-gneE12 -gneE13"/>
    </vehicle>
    <vehicle id="24" depart="2.40">
        <route edges="gneE12 -gneE7 -gneE6"/>
    </vehicle>
    <vehicle id="25" depart="2.50">
        <route edges="-gneE9 -gneE8 -gneE12"/>
    </vehicle>
    <vehicle id="27" depart="2.70">
        <route edges="gneE12 gneE10"/>
    </vehicle>
    <vehicle id="32" depart="3.20">
        <route edges="gneE7"/>
    </vehicle>
    <vehicle id="34" depart="3.40">
        <route edges="-gneE8 -gneE12 -gneE13"/>
    </vehicle>
    <vehicle id="36" depart="3.60">
        <route edges="gneE7 -gneE12 -gneE13"/>
    </vehicle>
    <vehicle id="37" depart="3.70">
        <route edges="gneE12 -gneE7 -gneE6"/>
    </vehicle>
    <vehicle id="39" depart="3.90">
        <route edges="-gneE8 -gneE12"/>
    </vehicle>
    <vehicle id="40" depart="4.00">
        <route edges="gneE11 -gneE10 -gneE12 -gneE13"/>
    </vehicle>
    <vehicle id="41" depart="4.10">
        <route edges="gneE12 gneE8"/>
    </vehicle>
    <vehicle id="42" depart="4.20">
        <route edges="-gneE9 -gneE8 -gneE12"/>
    </vehicle>
    <vehicle id="47" depart="4.70">
        <route edges="-gneE10 -gneE7 -gneE6"/>
    </vehicle>
    <vehicle id="49" depart="4.90">
        <route edges="gneE8"/>
    </vehicle>
    <vehicle id="52" depart="5.20">
        <route edges="-gneE8 gneE10"/>
    </vehicle>
    <vehicle id="55" depart="5.50">
        <route edges="gneE7 -gneE12 -gneE13"/>
    </vehicle>
    <vehicle id="56" depart="5.60">
        <route edges="gneE11 -gneE10 -gneE12"/>
    </vehicle>
    <vehicle id="57" depart="5.70">
        <route edges="gneE7 gneE8"/>
    </vehicle>
    <vehicle id="58" depart="5.80">
        <route edges="-gneE8 gneE10"/>
    </vehicle>
    <vehicle id="59" depart="5.90">
        <route edges="gneE12 gneE10 -gneE11"/>
    </vehicle>
    <vehicle id="62" depart="6.20">
        <route edges="-gneE10 -gneE12 -gneE13"/>
    </vehicle>
    <vehicle id="63" depart="6.30">
        <route edges="-gneE10 gneE8 gneE9"/>
    </vehicle>
    <vehicle id="64" depart="6.40">
        <route edges="gneE7"/>
    </vehicle>
    <vehicle id="66" depart="6.60">
        <route edges="gneE7 gneE8 gneE9"/>
    </vehicle>
    <vehicle id="69" depart="6.90">
        <route edges="gneE6 gneE7 gneE10 -gneE11"/>
    </vehicle>
    <vehicle id="77" depart="7.70">
        <route edges="-gneE12"/>
    </vehicle>
    <vehicle id="78" depart="7.80">
        <route edges="-gneE9 -gneE8 gneE10"/>
    </vehicle>
    <vehicle id="87" depart="8.70">
        <route edges="gneE6 gneE7 -gneE12"/>
    </vehicle>
    <vehicle id="90" depart="9.00">
        <route edges="gneE13 gneE12"/>
    </vehicle>
    <vehicle id="92" depart="9.20">
        <route edges="-gneE9 -gneE8 -gneE7 -gneE6"/>
    </vehicle>
    <vehicle id="93" depart="9.30">
        <route edges="gneE7 -gneE12"/>
    </vehicle>
    <vehicle id="94" depart="9.40">
        <route edges="-gneE7"/>
    </vehicle>
    <vehicle id="98" depart="9.80">
        <route edges="gneE11 -gneE10"/>
    </vehicle>
    <vehicle id="99" depart="9.90">
        <route edges="gneE8"/>
    </vehicle>
    <vehicle id="100" depart="10.00">
        <route edges="gneE8 gneE9"/>
    </vehicle>
    <vehicle id="101" depart="10.10">
        <route edges="gneE7 gneE10 -gneE11"/>
    </vehicle>
    <vehicle id="107" depart="10.70">
        <route edges="gneE8 gneE9"/>
    </vehicle>
    <vehicle id="109" depart="10.90">
        <route edges="-gneE12 -gneE13"/>
    </vehicle>
    <vehicle id="113" depart="11.30">
        <route edges="gneE11 -gneE10 gneE8"/>
    </vehicle>
    <vehicle id="115" depart="11.50">
        <route edges="-gneE10 -gneE12"/>
    </vehicle>
    <vehicle id="116" depart="11.60">
        <route edges="gneE12"/>
    </vehicle>
    <vehicle id="118" depart="11.80">
        <route edges="gneE7 -gneE12"/>
    </vehicle>
    <vehicle id="119" depart="11.90">
        <route edges="gneE12 gneE10"/>
    </vehicle>
    <vehicle id="120" depart="12.00">
        <route edges="gneE10"/>
    </vehicle>
    <vehicle id="121" depart="12.10">
        <route edges="gneE11 -gneE10 gneE8 gneE9"/>
    </vehicle>
    <vehicle id="123" depart="12.30">
        <route edges="-gneE7 -gneE6"/>
    </vehicle>
    <vehicle id="126" depart="12.60">
        <route edges="-gneE10 -gneE7"/>
    </vehicle>
    <vehicle id="127" depart="12.70">
        <route edges="gneE8 gneE9"/>
    </vehicle>
    <vehicle id="128" depart="12.80">
        <route edges="-gneE10 -gneE12"/>
    </vehicle>
    <vehicle id="130" depart="13.00">
        <route edges="gneE7 gneE8"/>
    </vehicle>
    <vehicle id="131" depart="13.10">
        <route edges="-gneE9 -gneE8 gneE10 -gneE11"/>
    </vehicle>
    <vehicle id="133" depart="13.30">
        <route edges="gneE12 gneE8 gneE9"/>
    </vehicle>
    <vehicle id="135" depart="13.50">
        <route edges="gneE6 gneE7 -gneE12 -gneE13"/>
    </vehicle>
    <vehicle id="136" depart="13.60">
        <route edges="gneE12 gneE8 gneE9"/>
    </vehicle>
    <vehicle id="139" depart="13.90">
        <route edges="-gneE8 gneE10"/>
    </vehicle>
    <vehicle id="143" depart="14.30">
        <route edges="gneE7 gneE10 -gneE11"/>
    </vehicle>
    <vehicle id="149" depart="14.90">
        <route edges="-gneE10 gneE8"/>
    </vehicle>
    <vehicle id="154" depart="15.40">
        <route edges="gneE6 gneE7 gneE8"/>
    </vehicle>
    <vehicle id="155" depart="15.50">
        <route edges="gneE7 -gneE12"/>
    </vehicle>
    <vehicle id="157" depart="15.70">
        <route edges="gneE6 gneE7 gneE8"/>
    </vehicle>
    <vehicle id="158" depart="15.80">
        <route edges="-gneE9 -gneE8 gneE10"/>
    </vehicle>
    <vehicle id="160" depart="16.00">
        <route edges="gneE7 gneE8 gneE9"/>
    </vehicle>
    <vehicle id="161" depart="16.10">
        <route edges="gneE6 gneE7 gneE8"/>
    </vehicle>
    <vehicle id="164" depart="16.40">
        <route edges="gneE6 gneE7 gneE8"/>
    </vehicle>
    <vehicle id="165" depart="16.50">
        <route edges="gneE6 gneE7 -gneE12 -gneE13"/>
    </vehicle>
    <vehicle id="166" depart="16.60">
        <route edges="gneE6 gneE7 gneE10 -gneE11"/>
    </vehicle>
    <vehicle id="167" depart="16.70">
        <route edges="gneE7 gneE8"/>
    </vehicle>
    <vehicle id="170" depart="17.00">
        <route edges="gneE6 gneE7 -gneE12"/>
    </vehicle>
    <vehicle id="171" depart="17.10">
        <route edges="-gneE10 -gneE12"/>
    </vehicle>
    <vehicle id="174" depart="17.40">
        <route edges="gneE12 -gneE7 -gneE6"/>
    </vehicle>
    <vehicle id="182" depart="18.20">
        <route edges="-gneE9 -gneE8"/>
    </vehicle>
    <vehicle id="184" depart="18.40">
        <route edges="-gneE10 gneE8 gneE9"/>
    </vehicle>
    <vehicle id="186" depart="18.60">
        <route edges="gneE13 gneE12"/>
    </vehicle>
    <vehicle id="191" depart="19.10">
        <route edges="-gneE8 -gneE7 -gneE6"/>
    </vehicle>
    <vehicle id="192" depart="19.20">
        <route edges="-gneE9 -gneE8 -gneE12 -gneE13"/>
    </vehicle>
    <vehicle id="195" depart="19.50">
        <route edges="gneE7 gneE10"/>
    </vehicle>
    <vehicle id="196" depart="19.60">
        <route edges="-gneE8"/>
    </vehicle>
    <vehicle id="197" depart="19.70">
        <route edges="-gneE10 -gneE12 -gneE13"/>
    </vehicle>
    <vehicle id="199" depart="19.90">
        <route edges="gneE12 -gneE7"/>
    </vehicle>
    <vehicle id="202" depart="20.20">
        <route edges="gneE6 gneE7 -gneE12"/>
    </vehicle>
    <vehicle id="204" depart="20.40">
        <route edges="gneE12 -gneE7 -gneE6"/>
    </vehicle>
    <vehicle id="205" depart="20.50">
        <route edges="gneE6 gneE7"/>
    </vehicle>
    <vehicle id="208" depart="20.80">
        <route edges="-gneE7"/>
    </vehicle>
    <vehicle id="210" depart="21.00">
        <route edges="-gneE9 -gneE8 gneE10"/>
    </vehicle>
    <vehicle id="214" depart="21.40">
        <route edges="gneE6 gneE7"/>
    </vehicle>
    <vehicle id="217" depart="21.70">
        <route edges="gneE11 -gneE10"/>
    </vehicle>
    <vehicle id="220" depart="22.00">
        <route edges="gneE13 gneE12 gneE8 gneE9"/>
    </vehicle>
    <vehicle id="221" depart="22.10">
        <route edges="gneE12 gneE8 gneE9"/>
    </vehicle>
    <vehicle id="222" depart="22.20">
        <route edges="gneE7 gneE10"/>
    </vehicle>
    <vehicle id="230" depart="23.00">
        <route edges="-gneE10 -gneE12 -gneE13"/>
    </vehicle>
    <vehicle id="231" depart="23.10">
        <route edges="-gneE8 -gneE12 -gneE13"/>
    </vehicle>
    <vehicle id="235" depart="23.50">
        <route edges="-gneE9 -gneE8"/>
    </vehicle>
    <vehicle id="236" depart="23.60">
        <route edges="-gneE9 -gneE8 -gneE12"/>
    </vehicle>
    <vehicle id="238" depart="23.80">
        <route edges="gneE12"/>
    </vehicle>
    <vehicle id="239" depart="23.90">
        <route edges="gneE7"/>
    </vehicle>
    <vehicle id="242" depart="24.20">
        <route edges="gneE7 gneE8 gneE9"/>
    </vehicle>
    <vehicle id="248" depart="24.80">
        <route edges="-gneE9 -gneE8 gneE10 -gneE11"/>
    </vehicle>
    <vehicle id="249" depart="24.90">
        <route edges="gneE10 -gneE11"/>
    </vehicle>
    <vehicle id="251" depart="25.10">
        <route edges="-gneE9 -gneE8"/>
    </vehicle>
    <vehicle id="254" depart="25.40">
        <route edges="-gneE10 -gneE7 -gneE6"/>
    </vehicle>
    <vehicle id="257" depart="25.70">
        <route edges="gneE6 gneE7"/>
    </vehicle>
    <vehicle id="266" depart="26.60">
        <route edges="gneE11 -gneE10 -gneE12"/>
    </vehicle>
    <vehicle id="269" depart="26.90">
        <route edges="gneE13 gneE12 gneE10 -gneE11"/>
    </vehicle>
    <vehicle id="270" depart="27.00">
        <route edges="gneE6 gneE7 gneE8 gneE9"/>
    </vehicle>
    <vehicle id="275" depart="27.50">
        <route edges="gneE13 gneE12 gneE10"/>
    </vehicle>
    <vehicle id="277" depart="27.70">
        <route edges="gneE7 gneE10"/>
    </vehicle>
    <vehicle id="281" depart="28.10">
        <route edges="gneE11 -gneE10 -gneE7 -gneE6"/>
    </vehicle>
    <vehicle id="282" depart="28.20">
        <route edges="gneE7"/>
    </vehicle>
    <vehicle id="285" depart="28.50">
        <route edges="gneE13 gneE12 -gneE7"/>
    </vehicle>
    <vehicle id="286" depart="28.60">
        <route edges="gneE13 gneE12 gneE8 gneE9"/>
    </vehicle>
    <vehicle id="288" depart="28.80">
        <route edges="gneE11 -gneE10 -gneE7"/>
    </vehicle>
    <vehicle id="291" depart="29.10">
        <route edges="gneE6 gneE7 gneE10 -gneE11"/>
    </vehicle>
    <vehicle id="292" depart="29.20">
        <route edges="gneE7 -gneE12"/>
    </vehicle>
    <vehicle id="293" depart="29.30">
        <route edges="gneE10"/>
    </vehicle>
    <vehicle id="295" depart="29.50">
        <route edges="gneE7 -gneE12"/>
    </vehicle>
    <vehicle id="299" depart="29.90">
        <route edges="-gneE10 gneE8 gneE9"/>
    </vehicle>
    <vehicle id="302" depart="30.20">
        <route edges="gneE13 gneE12 gneE10"/>
    </vehicle>
    <vehicle id="304" depart="30.40">
        <route edges="-gneE12"/>
    </vehicle>
    <vehicle id="306" depart="30.60">
        <route edges="gneE11 -gneE10 -gneE7"/>
    </vehicle>
    <vehicle id="307" depart="30.70">
        <route edges="gneE11 -gneE10 -gneE7"/>
    </vehicle>
    <vehicle id="310" depart="31.00">
        <route edges="-gneE8 gneE10 -gneE11"/>
    </vehicle>
    <vehicle id="316" depart="31.60">
        <route edges="-gneE8 gneE10 -gneE11"/>
    </vehicle>
    <vehicle id="319" depart="31.90">
        <route edges="gneE11 -gneE10 -gneE12 -gneE13"/>
    </vehicle>
    <vehicle id="321" depart="32.10">
        <route edges="gneE13 gneE12 gneE10 -gneE11"/>
    </vehicle>
    <vehicle id="330" depart="33.00">
        <route edges="gneE11 -gneE10 -gneE12 -gneE13"/>
    </vehicle>
    <vehicle id="332" depart="33.20">
        <route edges="gneE6 gneE7 gneE10"/>
    </vehicle>
    <vehicle id="333" depart="33.30">
        <route edges="gneE6 gneE7 -gneE12"/>
    </vehicle>
    <vehicle id="334" depart="33.40">
        <route edges="gneE11 -gneE10 -gneE7"/>
    </vehicle>
    <vehicle id="337" depart="33.70">
        <route edges="gneE12 gneE10"/>
    </vehicle>
    <vehicle id="338" depart="33.80">
        <route edges="gneE13 gneE12 gneE8 gneE9"/>
    </vehicle>
    <vehicle id="340" depart="34.00">
        <route edges="gneE12 gneE10 -gneE11"/>
    </vehicle>
    <vehicle id="342" depart="34.20">
        <route edges="-gneE10 -gneE7"/>
    </vehicle>
    <vehicle id="345" depart="34.50">
        <route edges="gneE13 gneE12 -gneE7"/>
    </vehicle>
    <vehicle id="346" depart="34.60">
        <route edges="gneE13 gneE12 gneE8 gneE9"/>
    </vehicle>
    <vehicle id="347" depart="34.70">
        <route edges="gneE6 gneE7 gneE10"/>
    </vehicle>
    <vehicle id="348" depart="34.80">
        <route edges="gneE12 gneE8 gneE9"/>
    </vehicle>
    <vehicle id="350" depart="35.00">
        <route edges="gneE12 gneE8"/>
    </vehicle>
    <vehicle id="352" depart="35.20">
        <route edges="-gneE12 -gneE13"/>
    </vehicle>
    <vehicle id="354" depart="35.40">
        <route edges="-gneE8 gneE10 -gneE11"/>
    </vehicle>
    <vehicle id="355" depart="35.50">
        <route edges="gneE13 gneE12"/>
    </vehicle>
    <vehicle id="358" depart="35.80">
        <route edges="-gneE10 -gneE7"/>
    </vehicle>
    <vehicle id="359" depart="35.90">
        <route edges="-gneE8 -gneE12 -gneE13"/>
    </vehicle>
    <vehicle id="362" depart="36.20">
        <route edges="gneE8 gneE9"/>
    </vehicle>
    <vehicle id="365" depart="36.50">
        <route edges="gneE10"/>
    </vehicle>
    <vehicle id="366" depart="36.60">
        <route edges="gneE7 -gneE12"/>
    </vehicle>
    <vehicle id="367" depart="36.70">
        <route edges="gneE12 gneE10"/>
    </vehicle>
    <vehicle id="368" depart="36.80">
        <route edges="gneE10 -gneE11"/>
    </vehicle>
    <vehicle id="369" depart="36.90">
        <route edges="-gneE9 -gneE8 -gneE12 -gneE13"/>
    </vehicle>
    <vehicle id="370" depart="37.00">
        <route edges="gneE13 gneE12 gneE8"/>
    </vehicle>
    <vehicle id="376" depart="37.60">
        <route edges="-gneE9 -gneE8"/>
    </vehicle>
    <vehicle id="378" depart="37.80">
        <route edges="gneE11 -gneE10 -gneE7 -gneE6"/>
    </vehicle>
    <vehicle id="379" depart="37.90">
        <route edges="-gneE7 -gneE6"/>
    </vehicle>
    <vehicle id="380" depart="38.00">
        <route edges="gneE6 gneE7 gneE10"/>
    </vehicle>
    <vehicle id="381" depart="38.10">
        <route edges="gneE6 gneE7 -gneE12"/>
    </vehicle>
    <vehicle id="382" depart="38.20">
        <route edges="gneE11 -gneE10 gneE8 gneE9"/>
    </vehicle>
    <vehicle id="388" depart="38.80">
        <route edges="gneE8"/>
    </vehicle>
    <vehicle id="389" depart="38.90">
        <route edges="gneE10 -gneE11"/>
    </vehicle>
    <vehicle id="394" depart="39.40">
        <route edges="gneE11 -gneE10 -gneE7 -gneE6"/>
    </vehicle>
    <vehicle id="396" depart="39.60">
        <route edges="gneE7 gneE8"/>
    </vehicle>
    <vehicle id="400" depart="40.00">
        <route edges="-gneE8 -gneE12 -gneE13"/>
    </vehicle>
    <vehicle id="401" depart="40.10">
        <route edges="gneE12 gneE8 gneE9"/>
    </vehicle>
    <vehicle id="402" depart="40.20">
        <route edges="gneE10 -gneE11"/>
    </vehicle>
    <vehicle id="403" depart="40.30">
        <route edges="gneE11 -gneE10 -gneE7 -gneE6"/>
    </vehicle>
    <vehicle id="407" depart="40.70">
        <route edges="gneE11 -gneE10 -gneE12"/>
    </vehicle>
    <vehicle id="409" depart="40.90">
        <route edges="gneE13 gneE12"/>
    </vehicle>
    <vehicle id="414" depart="41.40">
        <route edges="gneE12 gneE8"/>
    </vehicle>
    <vehicle id="416" depart="41.60">
        <route edges="gneE11 -gneE10 -gneE7"/>
    </vehicle>
    <vehicle id="417" depart="41.70">
        <route edges="gneE13 gneE12 -gneE7 -gneE6"/>
    </vehicle>
    <vehicle id="418" depart="41.80">
        <route edges="gneE12 gneE10 -gneE11"/>
    </vehicle>
    <vehicle id="421" depart="42.10">
        <route edges="gneE12 gneE8"/>
    </vehicle>
    <vehicle id="422" depart="42.20">
        <route edges="gneE7 gneE8"/>
    </vehicle>
    <vehicle id="423" depart="42.30">
        <route edges="-gneE9 -gneE8 -gneE12 -gneE13"/>
    </vehicle>
    <vehicle id="427" depart="42.70">
        <route edges="gneE8 gneE9"/>
    </vehicle>
    <vehicle id="428" depart="42.80">
        <route edges="gneE13 gneE12 -gneE7"/>
    </vehicle>
    <vehicle id="431" depart="43.10">
        <route edges="gneE13 gneE12 gneE8"/>
    </vehicle>
    <vehicle id="433" depart="43.30">
        <route edges="-gneE8 -gneE7 -gneE6"/>
    </vehicle>
    <vehicle id="437" depart="43.70">
        <route edges="gneE7 gneE10"/>
    </vehicle>
    <vehicle id="440" depart="44.00">
        <route edges="-gneE8 -gneE12 -gneE13"/>
    </vehicle>
    <vehicle id="444" depart="44.40">
        <route edges="-gneE9 -gneE8 gneE10"/>
    </vehicle>
    <vehicle id="445" depart="44.50">
        <route edges="gneE12 -gneE7"/>
    </vehicle>
    <vehicle id="447" depart="44.70">
        <route edges="-gneE7 -gneE6"/>
    </vehicle>
    <vehicle id="452" depart="45.20">
        <route edges="-gneE8"/>
    </vehicle>
    <vehicle id="453" depart="45.30">
        <route edges="gneE13 gneE12"/>
    </vehicle>
    <vehicle id="457" depart="45.70">
        <route edges="gneE12 -gneE7 -gneE6"/>
    </vehicle>
    <vehicle id="458" depart="45.80">
        <route edges="gneE12 gneE10"/>
    </vehicle>
    <vehicle id="459" depart="45.90">
        <route edges="gneE13 gneE12"/>
    </vehicle>
    <vehicle id="460" depart="46.00">
        <route edges="gneE12 gneE8"/>
    </vehicle>
    <vehicle id="461" depart="46.10">
        <route edges="gneE12 gneE8"/>
    </vehicle>
    <vehicle id="464" depart="46.40">
        <route edges="gneE13 gneE12 gneE10 -gneE11"/>
    </vehicle>
    <vehicle id="467" depart="46.70">
        <route edges="gneE11 -gneE10 gneE8 gneE9"/>
    </vehicle>
    <vehicle id="468" depart="46.80">
        <route edges="gneE11 -gneE10 gneE8"/>
    </vehicle>
    <vehicle id="469" depart="46.90">
        <route edges="gneE6 gneE7 -gneE12 -gneE13"/>
    </vehicle>
    <vehicle id="472" depart="47.20">
        <route edges="-gneE9 -gneE8 gneE10 -gneE11"/>
    </vehicle>
    <vehicle id="474" depart="47.40">
        <route edges="gneE8"/>
    </vehicle>
    <vehicle id="475" depart="47.50">
        <route edges="gneE13 gneE12 gneE8 gneE9"/>
    </vehicle>
    <vehicle id="480" depart="48.00">
        <route edges="gneE13 gneE12 gneE10"/>
    </vehicle>
    <vehicle id="481" depart="48.10">
        <route edges="gneE6 gneE7 gneE8 gneE9"/>
    </vehicle>
    <vehicle id="482" depart="48.20">
        <route edges="-gneE12"/>
    </vehicle>
    <vehicle id="483" depart="48.30">
        <route edges="-gneE10 gneE8"/>
    </vehicle>
    <vehicle id="484" depart="48.40">
        <route edges="gneE11 -gneE10 gneE8"/>
    </vehicle>
    <vehicle id="486" depart="48.60">
        <route edges="gneE6 gneE7 gneE8"/>
    </vehicle>
    <vehicle id="487" depart="48.70">
        <route edges="-gneE8 -gneE7 -gneE6"/>
    </vehicle>
    <vehicle id="489" depart="48.90">
        <route edges="-gneE8 -gneE7"/>
    </vehicle>
    <vehicle id="492" depart="49.20">
        <route edges="gneE13 gneE12"/>
    </vehicle>
    <vehicle id="494" depart="49.40">
        <route edges="gneE13 gneE12 gneE10 -gneE11"/>
    </vehicle>
    <vehicle id="495" depart="49.50">
        <route edges="-gneE9 -gneE8 gneE10 -gneE11"/>
    </vehicle>
    <vehicle id="498" depart="49.80">
        <route edges="-gneE9 -gneE8 -gneE7"/>
    </vehicle>
    <vehicle id="499" depart="49.90">
        <route edges="gneE8"/>
    </vehicle>
    <vehicle id="501" depart="50.10">
        <route edges="gneE11 -gneE10 gneE8 gneE9"/>
    </vehicle>
    <vehicle id="502" depart="50.20">
        <route edges="-gneE9 -gneE8 -gneE7 -gneE6"/>
    </vehicle>
    <vehicle id="505" depart="50.50">
        <route edges="gneE12 gneE10"/>
    </vehicle>
    <vehicle id="507" depart="50.70">
        <route edges="gneE6 gneE7 -gneE12"/>
    </vehicle>
    <vehicle id="511" depart="51.10">
        <route edges="gneE7 -gneE12 -gneE13"/>
    </vehicle>
    <vehicle id="513" depart="51.30">
        <route edges="-gneE10 gneE8"/>
    </vehicle>
    <vehicle id="515" depart="51.50">
        <route edges="-gneE8 -gneE12"/>
    </vehicle>
    <vehicle id="521" depart="52.10">
        <route edges="gneE13 gneE12 -gneE7"/>
    </vehicle>
    <vehicle id="525" depart="52.50">
        <route edges="gneE6 gneE7 gneE8"/>
    </vehicle>
    <vehicle id="526" depart="52.60">
        <route edges="gneE11 -gneE10 -gneE7"/>
    </vehicle>
    <vehicle id="529" depart="52.90">
        <route edges="gneE13 gneE12 -gneE7"/>
    </vehicle>
    <vehicle id="532" depart="53.20">
        <route edges="-gneE10 -gneE12 -gneE13"/>
    </vehicle>
    <vehicle id="535" depart="53.50">
        <route edges="gneE11 -gneE10 -gneE7"/>
    </vehicle>
    <vehicle id="536" depart="53.60">
        <route edges="gneE12 gneE10 -gneE11"/>
    </vehicle>
    <vehicle id="537" depart="53.70">
        <route edges="gneE13 gneE12 gneE8"/>
    </vehicle>
    <vehicle id="541" depart="54.10">
        <route edges="-gneE9 -gneE8 -gneE7"/>
    </vehicle>
    <vehicle id="542" depart="54.20">
        <route edges="-gneE9 -gneE8 gneE10 -gneE11"/>
    </vehicle>
    <vehicle id="543" depart="54.30">
        <route edges="gneE10"/>
    </vehicle>
    <vehicle id="544" depart="54.40">
        <route edges="-gneE9 -gneE8 gneE10 -gneE11"/>
    </vehicle>
    <vehicle id="546" depart="54.60">
        <route edges="gneE6 gneE7 gneE10 -gneE11"/>
    </vehicle>
    <vehicle id="550" depart="55.00">
        <route edges="-gneE8 gneE10 -gneE11"/>
    </vehicle>
    <vehicle id="551" depart="55.10">
        <route edges="-gneE9 -gneE8 gneE10"/>
    </vehicle>
    <vehicle id="552" depart="55.20">
        <route edges="gneE6 gneE7 gneE8"/>
    </vehicle>
    <vehicle id="553" depart="55.30">
        <route edges="gneE13 gneE12 gneE8 gneE9"/>
    </vehicle>
    <vehicle id="554" depart="55.40">
        <route edges="gneE12 -gneE7 -gneE6"/>
    </vehicle>
    <vehicle id="555" depart="55.50">
        <route edges="gneE11 -gneE10 -gneE12"/>
    </vehicle>
    <vehicle id="560" depart="56.00">
        <route edges="gneE7 gneE8 gneE9"/>
    </vehicle>
    <vehicle id="561" depart="56.10">
        <route edges="gneE6 gneE7 gneE10"/>
    </vehicle>
    <vehicle id="564" depart="56.40">
        <route edges="-gneE8 -gneE12"/>
    </vehicle>
    <vehicle id="568" depart="56.80">
        <route edges="-gneE9 -gneE8 gneE10 -gneE11"/>
    </vehicle>
    <vehicle id="577" depart="57.70">
        <route edges="gneE12 -gneE7"/>
    </vehicle>
    <vehicle id="579" depart="57.90">
        <route edges="gneE6 gneE7 gneE10 -gneE11"/>
    </vehicle>
    <vehicle id="581" depart="58.10">
        <route edges="gneE13 gneE12 -gneE7"/>
    </vehicle>
    <vehicle id="583" depart="58.30">
        <route edges="-gneE9 -gneE8 gneE10"/>
    </vehicle>
    <vehicle id="584" depart="58.40">
        <route edges="-gneE10 -gneE12 -gneE13"/>
    </vehicle>
    <vehicle id="586" depart="58.60">
        <route edges="-gneE8 -gneE12 -gneE13"/>
    </vehicle>
    <vehicle id="588" depart="58.80">
        <route edges="-gneE7 -gneE6"/>
    </vehicle>
    <vehicle id="590" depart="59.00">
        <route edges="gneE7"/>
    </vehicle>
    <vehicle id="591" depart="59.10">
        <route edges="-gneE10 gneE8"/>
    </vehicle>
    <vehicle id="592" depart="59.20">
        <route edges="-gneE10"/>
    </vehicle>
    <vehicle id="593" depart="59.30">
        <route edges="gneE8"/>
    </vehicle>
    <vehicle id="595" depart="59.50">
        <route edges="gneE13 gneE12 -gneE7"/>
    </vehicle>
    <vehicle id="600" depart="60.00">
        <route edges="gneE7 -gneE12"/>
    </vehicle>
    <vehicle id="602" depart="60.20">
        <route edges="-gneE9 -gneE8 -gneE12 -gneE13"/>
    </vehicle>
    <vehicle id="603" depart="60.30">
        <route edges="-gneE9 -gneE8 -gneE12 -gneE13"/>
    </vehicle>
    <vehicle id="608" depart="60.80">
        <route edges="gneE6 gneE7 -gneE12"/>
    </vehicle>
    <vehicle id="609" depart="60.90">
        <route edges="-gneE12"/>
    </vehicle>
    <vehicle id="613" depart="61.30">
        <route edges="gneE6 gneE7"/>
    </vehicle>
    <vehicle id="616" depart="61.60">
        <route edges="gneE12 gneE8"/>
    </vehicle>
    <vehicle id="617" depart="61.70">
        <route edges="gneE12 gneE10 -gneE11"/>
    </vehicle>
    <vehicle id="618" depart="61.80">
        <route edges="-gneE10 -gneE7"/>
    </vehicle>
    <vehicle id="619" depart="61.90">
        <route edges="-gneE8 -gneE12 -gneE13"/>
    </vehicle>
    <vehicle id="621" depart="62.10">
        <route edges="-gneE8 -gneE7"/>
    </vehicle>
    <vehicle id="623" depart="62.30">
        <route edges="-gneE10 gneE8"/>
    </vehicle>
    <vehicle id="624" depart="62.40">
        <route edges="gneE7 gneE10"/>
    </vehicle>
    <vehicle id="625" depart="62.50">
        <route edges="gneE11 -gneE10 -gneE7"/>
    </vehicle>
    <vehicle id="628" depart="62.80">
        <route edges="gneE6 gneE7 gneE10"/>
    </vehicle>
    <vehicle id="629" depart="62.90">
        <route edges="-gneE8 -gneE7"/>
    </vehicle>
    <vehicle id="633" depart="63.30">
        <route edges="gneE11 -gneE10 -gneE12"/>
    </vehicle>
    <vehicle id="634" depart="63.40">
        <route edges="-gneE7"/>
    </vehicle>
    <vehicle id="637" depart="63.70">
        <route edges="-gneE8 -gneE7 -gneE6"/>
    </vehicle>
    <vehicle id="638" depart="63.80">
        <route edges="-gneE9 -gneE8 gneE10"/>
    </vehicle>
    <vehicle id="639" depart="63.90">
        <route edges="gneE6 gneE7 gneE10"/>
    </vehicle>
    <vehicle id="642" depart="64.20">
        <route edges="gneE13 gneE12 gneE10"/>
    </vehicle>
    <vehicle id="643" depart="64.30">
        <route edges="gneE7 gneE8"/>
    </vehicle>
    <vehicle id="644" depart="64.40">
        <route edges="-gneE9 -gneE8"/>
    </vehicle>
    <vehicle id="647" depart="64.70">
        <route edges="-gneE9 -gneE8 gneE10"/>
    </vehicle>
    <vehicle id="653" depart="65.30">
        <route edges="gneE12 -gneE7"/>
    </vehicle>
    <vehicle id="654" depart="65.40">
        <route edges="-gneE9 -gneE8 -gneE7 -gneE6"/>
    </vehicle>
    <vehicle id="658" depart="65.80">
        <route edges="-gneE10 gneE8"/>
    </vehicle>
    <vehicle id="660" depart="66.00">
        <route edges="gneE7 gneE8"/>
    </vehicle>
    <vehicle id="661" depart="66.10">
        <route edges="-gneE10 -gneE7 -gneE6"/>
    </vehicle>
    <vehicle id="662" depart="66.20">
        <route edges="gneE6 gneE7 gneE10 -gneE11"/>
    </vehicle>
    <vehicle id="663" depart="66.30">
        <route edges="-gneE9 -gneE8 gneE10 -gneE11"/>
    </vehicle>
    <vehicle id="664" depart="66.40">
        <route edges="gneE6 gneE7"/>
    </vehicle>
    <vehicle id="665" depart="66.50">
        <route edges="gneE6 gneE7 gneE10 -gneE11"/>
    </vehicle>
    <vehicle id="669" depart="66.90">
        <route edges="gneE13 gneE12 -gneE7"/>
    </vehicle>
    <vehicle id="670" depart="67.00">
        <route edges="gneE11 -gneE10 -gneE12 -gneE13"/>
    </vehicle>
    <vehicle id="673" depart="67.30">
        <route edges="gneE8 gneE9"/>
    </vehicle>
    <vehicle id="675" depart="67.50">
        <route edges="-gneE9 -gneE8"/>
    </vehicle>
    <vehicle id="677" depart="67.70">
        <route edges="gneE6 gneE7 gneE10 -gneE11"/>
    </vehicle>
    <vehicle id="678" depart="67.80">
        <route edges="-gneE8 gneE10"/>
    </vehicle>
    <vehicle id="681" depart="68.10">
        <route edges="gneE7 -gneE12 -gneE13"/>
    </vehicle>
    <vehicle id="682" depart="68.20">
        <route edges="gneE6 gneE7 -gneE12 -gneE13"/>