<configuration xmlns:xsi="http://www.w3.org/2001/XMLSchema-instance" xsi:noNamespaceSchemaLocation="http://sumo.dlr.de/xsd/sumoConfiguration.xsd">

    <input>
        <net-file value="net.net.xml" />
        <route-files value="routes.rou.xml" />
        <additional-files value="parkings.add.xml,parkingRerouters.add.xml,vtype.xml"/>

    </input>
   <output>

   </output>
</configuration>
