<?xml version="1.0" encoding="utf-8"?>
<additional>
	<parkingArea id="PA_B1B2" lane="B1B2_0" length="1" start_pos="189" end_pos="189" roadsideCapacity="0" friendlyPos="1" capacity="900">
		<space x="1116.0" y="1200.0" width="2" length="3"/>
		<space x="1120.0" y="1200.0" width="2" length="3"/>
		<space x="1124.0" y="1200.0" width="2" length="3"/>
		<space x="1128.0" y="1200.0" width="2" length="3"/>
		<space x="1132.0" y="1200.0" width="2" length="3"/>
		<space x="1136.0" y="1200.0" width="2" length="3"/>
		<space x="1140.0" y="1200.0" width="2" length="3"/>
		<space x="1144.0" y="1200.0" width="2" length="3"/>
		<space x="1148.0" y="1200.0" width="2" length="3"/>
		<space x="1152.0" y="1200.0" width="2" length="3"/>
		<space x="1156.0" y="1200.0" width="2" length="3"/>
		<space x="1160.0" y="1200.0" width="2" length="3"/>
		<space x="1164.0" y="1200.0" width="2" length="3"/>
		<space x="1168.0" y="1200.0" width="2" length="3"/>
		<space x="1172.0" y="1200.0" width="2" length="3"/>
		<space x="1176.0" y="1200.0" width="2" length="3"/>
		<space x="1180.0" y="1200.0" width="2" length="3"/>
		<space x="1184.0" y="1200.0" width="2" length="3"/>
		<space x="1188.0" y="1200.0" width="2" length="3"/>
		<space x="1192.0" y="1200.0" width="2" length="3"/>
		<space x="1196.0" y="1200.0" width="2" length="3"/>
		<space x="1200.0" y="1200.0" width="2" length="3"/>
		<space x="1204.0" y="1200.0" width="2" length="3"/>
		<space x="1208.0" y="1200.0" width="2" length="3"/>
		<space x="1212.0" y="1200.0" width="2" length="3"/>
		<space x="1216.0" y="1200.0" width="2" length="3"/>
		<space x="1220.0" y="1200.0" width="2" length="3"/>
		<space x="1224.0" y="1200.0" width="2" length="3"/>
		<space x="1228.0" y="1200.0" width="2" length="3"/>
		<space x="1232.0" y="1200.0" width="2" length="3"/>
		<space x="1116.0" y="1204.0" width="2" length="3"/>
		<space x="1120.0" y="1204.0" width="2" length="3"/>
		<space x="1124.0" y="1204.0" width="2" length="3"/>
		<space x="1128.0" y="1204.0" width="2" length="3"/>
		<space x="1132.0" y="1204.0" width="2" length="3"/>
		<space x="1136.0" y="1204.0" width="2" length="3"/>
		<space x="1140.0" y="1204.0" width="2" length="3"/>
		<space x="1144.0" y="1204.0" width="2" length="3"/>
		<space x="1148.0" y="1204.0" width="2" length="3"/>
		<space x="1152.0" y="1204.0" width="2" length="3"/>
		<space x="1156.0" y="1204.0" width="2" length="3"/>
		<space x="1160.0" y="1204.0" width="2" length="3"/>
		<space x="1164.0" y="1204.0" width="2" length="3"/>
		<space x="1168.0" y="1204.0" width="2" length="3"/>
		<space x="1172.0" y="1204.0" width="2" length="3"/>
		<space x="1176.0" y="1204.0" width="2" length="3"/>
		<space x="1180.0" y="1204.0" width="2" length="3"/>
		<space x="1184.0" y="1204.0" width="2" length="3"/>
		<space x="1188.0" y="1204.0" width="2" length="3"/>
		<space x="1192.0" y="1204.0" width="2" length="3"/>
		<space x="1196.0" y="1204.0" width="2" length="3"/>
		<space x="1200.0" y="1204.0" width="2" length="3"/>
		<space x="1204.0" y="1204.0" width="2" length="3"/>
		<space x="1208.0" y="1204.0" width="2" length="3"/>
		<space x="1212.0" y="1204.0" width="2" length="3"/>
		<space x="1216.0" y="1204.0" width="2" length="3"/>
		<space x="1220.0" y="1204.0" width="2" length="3"/>
		<space x="1224.0" y="1204.0" width="2" length="3"/>
		<space x="1228.0" y="1204.0" width="2" length="3"/>
		<space x="1232.0" y="1204.0" width="2" length="3"/>
		<space x="1116.0" y="1208.0" width="2" length="3"/>
		<space x="1120.0" y="1208.0" width="2" length="3"/>
		<space x="1124.0" y="1208.0" width="2" length="3"/>
		<space x="1128.0" y="1208.0" width="2" length="3"/>
		<space x="1132.0" y="1208.0" width="2" length="3"/>
		<space x="1136.0" y="1208.0" width="2" length="3"/>
		<space x="1140.0" y="1208.0" width="2" length="3"/>
		<space x="1144.0" y="1208.0" width="2" length="3"/>
		<space x="1148.0" y="1208.0" width="2" length="3"/>
		<space x="1152.0" y="1208.0" width="2" length="3"/>
		<space x="1156.0" y="1208.0" width="2" length="3"/>
		<space x="1160.0" y="1208.0" width="2" length="3"/>
		<space x="1164.0" y="1208.0" width="2" length="3"/>
		<space x="1168.0" y="1208.0" width="2" length="3"/>
		<space x="1172.0" y="1208.0" width="2" length="3"/>
		<space x="1176.0" y="1208.0" width="2" length="3"/>
		<space x="1180.0" y="1208.0" width="2" length="3"/>
		<space x="1184.0" y="1208.0" width="2" length="3"/>
		<space x="1188.0" y="1208.0" width="2" length="3"/>
		<space x="1192.0" y="1208.0" width="2" length="3"/>
		<space x="1196.0" y="1208.0" width="2" length="3"/>
		<space x="1200.0" y="1208.0" width="2" length="3"/>
		<space x="1204.0" y="1208.0" width="2" length="3"/>
		<space x="1208.0" y="1208.0" width="2" length="3"/>
		<space x="1212.0" y="1208.0" width="2" length="3"/>
		<space x="1216.0" y="1208.0" width="2" length="3"/>
		<space x="1220.0" y="1208.0" width="2" length="3"/>
		<space x="1224.0" y="1208.0" width="2" length="3"/>
		<space x="1228.0" y="1208.0" width="2" length="3"/>
		<space x="1232.0" y="1208.0" width="2" length="3"/>
		<space x="1116.0" y="1212.0" width="2" length="3"/>
		<space x="1120.0" y="1212.0" width="2" length="3"/>
		<space x="1124.0" y="1212.0" width="2" length="3"/>
		<space x="1128.0" y="1212.0" width="2" length="3"/>
		<space x="1132.0" y="1212.0" width="2" length="3"/>
		<space x="1136.0" y="1212.0" width="2" length="3"/>
		<space x="1140.0" y="1212.0" width="2" length="3"/>
		<space x="1144.0" y="1212.0" width="2" length="3"/>
		<space x="1148.0" y="1212.0" width="2" length="3"/>
		<space x="1152.0" y="1212.0" width="2" length="3"/>
		<space x="1156.0" y="1212.0" width="2" length="3"/>
		<space x="1160.0" y="1212.0" width="2" length="3"/>
		<space x="1164.0" y="1212.0" width="2" length="3"/>
		<space x="1168.0" y="1212.0" width="2" length="3"/>
		<space x="1172.0" y="1212.0" width="2" length="3"/>
		<space x="1176.0" y="1212.0" width="2" length="3"/>
		<space x="1180.0" y="1212.0" width="2" length="3"/>
		<space x="1184.0" y="1212.0" width="2" length="3"/>
		<space x="1188.0" y="1212.0" width="2" length="3"/>
		<space x="1192.0" y="1212.0" width="2" length="3"/>
		<space x="1196.0" y="1212.0" width="2" length="3"/>
		<space x="1200.0" y="1212.0" width="2" length="3"/>
		<space x="1204.0" y="1212.0" width="2" length="3"/>
		<space x="1208.0" y="1212.0" width="2" length="3"/>
		<space x="1212.0" y="1212.0" width="2" length="3"/>
		<space x="1216.0" y="1212.0" width="2" length="3"/>
		<space x="1220.0" y="1212.0" width="2" length="3"/>
		<space x="1224.0" y="1212.0" width="2" length="3"/>
		<space x="1228.0" y="1212.0" width="2" length="3"/>
		<space x="1232.0" y="1212.0" width="2" length="3"/>
		<space x="1116.0" y="1216.0" width="2" length="3"/>
		<space x="1120.0" y="1216.0" width="2" length="3"/>
		<space x="1124.0" y="1216.0" width="2" length="3"/>
		<space x="1128.0" y="1216.0" width="2" length="3"/>
		<space x="1132.0" y="1216.0" width="2" length="3"/>
		<space x="1136.0" y="1216.0" width="2" length="3"/>
		<space x="1140.0" y="1216.0" width="2" length="3"/>
		<space x="1144.0" y="1216.0" width="2" length="3"/>
		<space x="1148.0" y="1216.0" width="2" length="3"/>
		<space x="1152.0" y="1216.0" width="2" length="3"/>
		<space x="1156.0" y="1216.0" width="2" length="3"/>
		<space x="1160.0" y="1216.0" width="2" length="3"/>
		<space x="1164.0" y="1216.0" width="2" length="3"/>
		<space x="1168.0" y="1216.0" width="2" length="3"/>
		<space x="1172.0" y="1216.0" width="2" length="3"/>
		<space x="1176.0" y="1216.0" width="2" length="3"/>
		<space x="1180.0" y="1216.0" width="2" length="3"/>
		<space x="1184.0" y="1216.0" width="2" length="3"/>
		<space x="1188.0" y="1216.0" width="2" length="3"/>
		<space x="1192.0" y="1216.0" width="2" length="3"/>
		<space x="1196.0" y="1216.0" width="2" length="3"/>
		<space x="1200.0" y="1216.0" width="2" length="3"/>
		<space x="1204.0" y="1216.0" width="2" length="3"/>
		<space x="1208.0" y="1216.0" width="2" length="3"/>
		<space x="1212.0" y="1216.0" width="2" length="3"/>
		<space x="1216.0" y="1216.0" width="2" length="3"/>
		<space x="1220.0" y="1216.0" width="2" length="3"/>
		<space x="1224.0" y="1216.0" width="2" length="3"/>
		<space x="1228.0" y="1216.0" width="2" length="3"/>
		<space x="1232.0" y="1216.0" width="2" length="3"/>
		<space x="1116.0" y="1220.0" width="2" length="3"/>
		<space x="1120.0" y="1220.0" width="2" length="3"/>
		<space x="1124.0" y="1220.0" width="2" length="3"/>
		<space x="1128.0" y="1220.0" width="2" length="3"/>
		<space x="1132.0" y="1220.0" width="2" length="3"/>
		<space x="1136.0" y="1220.0" width="2" length="3"/>
		<space x="1140.0" y="1220.0" width="2" length="3"/>
		<space x="1144.0" y="1220.0" width="2" length="3"/>
		<space x="1148.0" y="1220.0" width="2" length="3"/>
		<space x="1152.0" y="1220.0" width="2" length="3"/>
		<space x="1156.0" y="1220.0" width="2" length="3"/>
		<space x="1160.0" y="1220.0" width="2" length="3"/>
		<space x="1164.0" y="1220.0" width="2" length="3"/>
		<space x="1168.0" y="1220.0" width="2" length="3"/>
		<space x="1172.0" y="1220.0" width="2" length="3"/>
		<space x="1176.0" y="1220.0" width="2" length="3"/>
		<space x="1180.0" y="1220.0" width="2" length="3"/>
		<space x="1184.0" y="1220.0" width="2" length="3"/>
		<space x="1188.0" y="1220.0" width="2" length="3"/>
		<space x="1192.0" y="1220.0" width="2" length="3"/>
		<space x="1196.0" y="1220.0" width="2" length="3"/>
		<space x="1200.0" y="1220.0" width="2" length="3"/>
		<space x="1204.0" y="1220.0" width="2" length="3"/>
		<space x="1208.0" y="1220.0" width="2" length="3"/>
		<space x="1212.0" y="1220.0" width="2" length="3"/>
		<space x="1216.0" y="1220.0" width="2" length="3"/>
		<space x="1220.0" y="1220.0" width="2" length="3"/>
		<space x="1224.0" y="1220.0" width="2" length="3"/>
		<space x="1228.0" y="1220.0" width="2" length="3"/>
		<space x="1232.0" y="1220.0" width="2" length="3"/>
		<space x="1116.0" y="1224.0" width="2" length="3"/>
		<space x="1120.0" y="1224.0" width="2" length="3"/>
		<space x="1124.0" y="1224.0" width="2" length="3"/>
		<space x="1128.0" y="1224.0" width="2" length="3"/>
		<space x="1132.0" y="1224.0" width="2" length="3"/>
		<space x="1136.0" y="1224.0" width="2" length="3"/>
		<space x="1140.0" y="1224.0" width="2" length="3"/>
		<space x="1144.0" y="1224.0" width="2" length="3"/>
		<space x="1148.0" y="1224.0" width="2" length="3"/>
		<space x="1152.0" y="1224.0" width="2" length="3"/>
		<space x="1156.0" y="1224.0" width="2" length="3"/>
		<space x="1160.0" y="1224.0" width="2" length="3"/>
		<space x="1164.0" y="1224.0" width="2" length="3"/>
		<space x="1168.0" y="1224.0" width="2" length="3"/>
		<space x="1172.0" y="1224.0" width="2" length="3"/>
		<space x="1176.0" y="1224.0" width="2" length="3"/>
		<space x="1180.0" y="1224.0" width="2" length="3"/>
		<space x="1184.0" y="1224.0" width="2" length="3"/>
		<space x="1188.0" y="1224.0" width="2" length="3"/>
		<space x="1192.0" y="1224.0" width="2" length="3"/>
		<space x="1196.0" y="1224.0" width="2" length="3"/>
		<space x="1200.0" y="1224.0" width="2" length="3"/>
		<space x="1204.0" y="1224.0" width="2" length="3"/>
		<space x="1208.0" y="1224.0" width="2" length="3"/>
		<space x="1212.0" y="1224.0" width="2" length="3"/>
		<space x="1216.0" y="1224.0" width="2" length="3"/>
		<space x="1220.0" y="1224.0" width="2" length="3"/>
		<space x="1224.0" y="1224.0" width="2" length="3"/>
		<space x="1228.0" y="1224.0" width="2" length="3"/>
		<space x="1232.0" y="1224.0" width="2" length="3"/>
		<space x="1116.0" y="1228.0" width="2" length="3"/>
		<space x="1120.0" y="1228.0" width="2" length="3"/>
		<space x="1124.0" y="1228.0" width="2" length="3"/>
		<space x="1128.0" y="1228.0" width="2" length="3"/>
		<space x="1132.0" y="1228.0" width="2" length="3"/>
		<space x="1136.0" y="1228.0" width="2" length="3"/>
		<space x="1140.0" y="1228.0" width="2" length="3"/>
		<space x="1144.0" y="1228.0" width="2" length="3"/>
		<space x="1148.0" y="1228.0" width="2" length="3"/>
		<space x="1152.0" y="1228.0" width="2" length="3"/>
		<space x="1156.0" y="1228.0" width="2" length="3"/>
		<space x="1160.0" y="1228.0" width="2" length="3"/>
		<space x="1164.0" y="1228.0" width="2" length="3"/>
		<space x="1168.0" y="1228.0" width="2" length="3"/>
		<space x="1172.0" y="1228.0" width="2" length="3"/>
		<space x="1176.0" y="1228.0" width="2" length="3"/>
		<space x="1180.0" y="1228.0" width="2" length="3"/>
		<space x="1184.0" y="1228.0" width="2" length="3"/>
		<space x="1188.0" y="1228.0" width="2" length="3"/>
		<space x="1192.0" y="1228.0" width="2" length="3"/>
		<space x="1196.0" y="1228.0" width="2" length="3"/>
		<space x="1200.0" y="1228.0" width="2" length="3"/>
		<space x="1204.0" y="1228.0" width="2" length="3"/>
		<space x="1208.0" y="1228.0" width="2" length="3"/>
		<space x="1212.0" y="1228.0" width="2" length="3"/>
		<space x="1216.0" y="1228.0" width="2" length="3"/>
		<space x="1220.0" y="1228.0" width="2" length="3"/>
		<space x="1224.0" y="1228.0" width="2" length="3"/>
		<space x="1228.0" y="1228.0" width="2" length="3"/>
		<space x="1232.0" y="1228.0" width="2" length="3"/>
		<space x="1116.0" y="1232.0" width="2" length="3"/>
		<space x="1120.0" y="1232.0" width="2" length="3"/>
		<space x="1124.0" y="1232.0" width="2" length="3"/>
		<space x="1128.0" y="1232.0" width="2" length="3"/>
		<space x="1132.0" y="1232.0" width="2" length="3"/>
		<space x="1136.0" y="1232.0" width="2" length="3"/>
		<space x="1140.0" y="1232.0" width="2" length="3"/>
		<space x="1144.0" y="1232.0" width="2" length="3"/>
		<space x="1148.0" y="1232.0" width="2" length="3"/>
		<space x="1152.0" y="1232.0" width="2" length="3"/>
		<space x="1156.0" y="1232.0" width="2" length="3"/>
		<space x="1160.0" y="1232.0" width="2" length="3"/>
		<space x="1164.0" y="1232.0" width="2" length="3"/>
		<space x="1168.0" y="1232.0" width="2" length="3"/>
		<space x="1172.0" y="1232.0" width="2" length="3"/>
		<space x="1176.0" y="1232.0" width="2" length="3"/>
		<space x="1180.0" y="1232.0" width="2" length="3"/>
		<space x="1184.0" y="1232.0" width="2" length="3"/>
		<space x="1188.0" y="1232.0" width="2" length="3"/>
		<space x="1192.0" y="1232.0" width="2" length="3"/>
		<space x="1196.0" y="1232.0" width="2" length="3"/>
		<space x="1200.0" y="1232.0" width="2" length="3"/>
		<space x="1204.0" y="1232.0" width="2" length="3"/>
		<space x="1208.0" y="1232.0" width="2" length="3"/>
		<space x="1212.0" y="1232.0" width="2" length="3"/>
		<space x="1216.0" y="1232.0" width="2" length="3"/>
		<space x="1220.0" y="1232.0" width="2" length="3"/>
		<space x="1224.0" y="1232.0" width="2" length="3"/>
		<space x="1228.0" y="1232.0" width="2" length="3"/>
		<space x="1232.0" y="1232.0" width="2" length="3"/>
		<space x="1116.0" y="1236.0" width="2" length="3"/>
		<space x="1120.0" y="1236.0" width="2" length="3"/>
		<space x="1124.0" y="1236.0" width="2" length="3"/>
		<space x="1128.0" y="1236.0" width="2" length="3"/>
		<space x="1132.0" y="1236.0" width="2" length="3"/>
		<space x="1136.0" y="1236.0" width="2" length="3"/>
		<space x="1140.0" y="1236.0" width="2" length="3"/>
		<space x="1144.0" y="1236.0" width="2" length="3"/>
		<space x="1148.0" y="1236.0" width="2" length="3"/>
		<space x="1152.0" y="1236.0" width="2" length="3"/>
		<space x="1156.0" y="1236.0" width="2" length="3"/>
		<space x="1160.0" y="1236.0" width="2" length="3"/>
		<space x="1164.0" y="1236.0" width="2" length="3"/>
		<space x="1168.0" y="1236.0" width="2" length="3"/>
		<space x="1172.0" y="1236.0" width="2" length="3"/>
		<space x="1176.0" y="1236.0" width="2" length="3"/>
		<space x="1180.0" y="1236.0" width="2" length="3"/>
		<space x="1184.0" y="1236.0" width="2" length="3"/>
		<space x="1188.0" y="1236.0" width="2" length="3"/>
		<space x="1192.0" y="1236.0" width="2" length="3"/>
		<space x="1196.0" y="1236.0" width="2" length="3"/>
		<space x="1200.0" y="1236.0" width="2" length="3"/>
		<space x="1204.0" y="1236.0" width="2" length="3"/>
		<space x="1208.0" y="1236.0" width="2" length="3"/>
		<space x="1212.0" y="1236.0" width="2" length="3"/>
		<space x="1216.0" y="1236.0" width="2" length="3"/>
		<space x="1220.0" y="1236.0" width="2" length="3"/>
		<space x="1224.0" y="1236.0" width="2" length="3"/>
		<space x="1228.0" y="1236.0" width="2" length="3"/>
		<space x="1232.0" y="1236.0" width="2" length="3"/>
		<space x="1116.0" y="1240.0" width="2" length="3"/>
		<space x="1120.0" y="1240.0" width="2" length="3"/>
		<space x="1124.0" y="1240.0" width="2" length="3"/>
		<space x="1128.0" y="1240.0" width="2" length="3"/>
		<space x="1132.0" y="1240.0" width="2" length="3"/>
		<space x="1136.0" y="1240.0" width="2" length="3"/>
		<space x="1140.0" y="1240.0" width="2" length="3"/>
		<space x="1144.0" y="1240.0" width="2" length="3"/>
		<space x="1148.0" y="1240.0" width="2" length="3"/>
		<space x="1152.0" y="1240.0" width="2" length="3"/>
		<space x="1156.0" y="1240.0" width="2" length="3"/>
		<space x="1160.0" y="1240.0" width="2" length="3"/>
		<space x="1164.0" y="1240.0" width="2" length="3"/>
		<space x="1168.0" y="1240.0" width="2" length="3"/>
		<space x="1172.0" y="1240.0" width="2" length="3"/>
		<space x="1176.0" y="1240.0" width="2" length="3"/>
		<space x="1180.0" y="1240.0" width="2" length="3"/>
		<space x="1184.0" y="1240.0" width="2" length="3"/>
		<space x="1188.0" y="1240.0" width="2" length="3"/>
		<space x="1192.0" y="1240.0" width="2" length="3"/>
		<space x="1196.0" y="1240.0" width="2" length="3"/>
		<space x="1200.0" y="1240.0" width="2" length="3"/>
		<space x="1204.0" y="1240.0" width="2" length="3"/>
		<space x="1208.0" y="1240.0" width="2" length="3"/>
		<space x="1212.0" y="1240.0" width="2" length="3"/>
		<space x="1216.0" y="1240.0" width="2" length="3"/>
		<space x="1220.0" y="1240.0" width="2" length="3"/>
		<space x="1224.0" y="1240.0" width="2" length="3"/>
		<space x="1228.0" y="1240.0" width="2" length="3"/>
		<space x="1232.0" y="1240.0" width="2" length="3"/>
		<space x="1116.0" y="1244.0" width="2" length="3"/>
		<space x="1120.0" y="1244.0" width="2" length="3"/>
		<space x="1124.0" y="1244.0" width="2" length="3"/>
		<space x="1128.0" y="1244.0" width="2" length="3"/>
		<space x="1132.0" y="1244.0" width="2" length="3"/>
		<space x="1136.0" y="1244.0" width="2" length="3"/>
		<space x="1140.0" y="1244.0" width="2" length="3"/>
		<space x="1144.0" y="1244.0" width="2" length="3"/>
		<space x="1148.0" y="1244.0" width="2" length="3"/>
		<space x="1152.0" y="1244.0" width="2" length="3"/>
		<space x="1156.0" y="1244.0" width="2" length="3"/>
		<space x="1160.0" y="1244.0" width="2" length="3"/>
		<space x="1164.0" y="1244.0" width="2" length="3"/>
		<space x="1168.0" y="1244.0" width="2" length="3"/>
		<space x="1172.0" y="1244.0" width="2" length="3"/>
		<space x="1176.0" y="1244.0" width="2" length="3"/>
		<space x="1180.0" y="1244.0" width="2" length="3"/>
		<space x="1184.0" y="1244.0" width="2" length="3"/>
		<space x="1188.0" y="1244.0" width="2" length="3"/>
		<space x="1192.0" y="1244.0" width="2" length="3"/>
		<space x="1196.0" y="1244.0" width="2" length="3"/>
		<space x="1200.0" y="1244.0" width="2" length="3"/>
		<space x="1204.0" y="1244.0" width="2" length="3"/>
		<space x="1208.0" y="1244.0" width="2" length="3"/>
		<space x="1212.0" y="1244.0" width="2" length="3"/>
		<space x="1216.0" y="1244.0" width="2" length="3"/>
		<space x="1220.0" y="1244.0" width="2" length="3"/>
		<space x="1224.0" y="1244.0" width="2" length="3"/>
		<space x="1228.0" y="1244.0" width="2" length="3"/>
		<space x="1232.0" y="1244.0" width="2" length="3"/>
		<space x="1116.0" y="1248.0" width="2" length="3"/>
		<space x="1120.0" y="1248.0" width="2" length="3"/>
		<space x="1124.0" y="1248.0" width="2" length="3"/>
		<space x="1128.0" y="1248.0" width="2" length="3"/>
		<space x="1132.0" y="1248.0" width="2" length="3"/>
		<space x="1136.0" y="1248.0" width="2" length="3"/>
		<space x="1140.0" y="1248.0" width="2" length="3"/>
		<space x="1144.0" y="1248.0" width="2" length="3"/>
		<space x="1148.0" y="1248.0" width="2" length="3"/>
		<space x="1152.0" y="1248.0" width="2" length="3"/>
		<space x="1156.0" y="1248.0" width="2" length="3"/>
		<space x="1160.0" y="1248.0" width="2" length="3"/>
		<space x="1164.0" y="1248.0" width="2" length="3"/>
		<space x="1168.0" y="1248.0" width="2" length="3"/>
		<space x="1172.0" y="1248.0" width="2" length="3"/>
		<space x="1176.0" y="1248.0" width="2" length="3"/>
		<space x="1180.0" y="1248.0" width="2" length="3"/>
		<space x="1184.0" y="1248.0" width="2" length="3"/>
		<space x="1188.0" y="1248.0" width="2" length="3"/>
		<space x="1192.0" y="1248.0" width="2" length="3"/>
		<space x="1196.0" y="1248.0" width="2" length="3"/>
		<space x="1200.0" y="1248.0" width="2" length="3"/>
		<space x="1204.0" y="1248.0" width="2" length="3"/>
		<space x="1208.0" y="1248.0" width="2" length="3"/>
		<space x="1212.0" y="1248.0" width="2" length="3"/>
		<space x="1216.0" y="1248.0" width="2" length="3"/>
		<space x="1220.0" y="1248.0" width="2" length="3"/>
		<space x="1224.0" y="1248.0" width="2" length="3"/>
		<space x="1228.0" y="1248.0" width="2" length="3"/>
		<space x="1232.0" y="1248.0" width="2" length="3"/>
		<space x="1116.0" y="1252.0" width="2" length="3"/>
		<space x="1120.0" y="1252.0" width="2" length="3"/>
		<space x="1124.0" y="1252.0" width="2" length="3"/>
		<space x="1128.0" y="1252.0" width="2" length="3"/>
		<space x="1132.0" y="1252.0" width="2" length="3"/>
		<space x="1136.0" y="1252.0" width="2" length="3"/>
		<space x="1140.0" y="1252.0" width="2" length="3"/>
		<space x="1144.0" y="1252.0" width="2" length="3"/>
		<space x="1148.0" y="1252.0" width="2" length="3"/>
		<space x="1152.0" y="1252.0" width="2" length="3"/>
		<space x="1156.0" y="1252.0" width="2" length="3"/>
		<space x="1160.0" y="1252.0" width="2" length="3"/>
		<space x="1164.0" y="1252.0" width="2" length="3"/>
		<space x="1168.0" y="1252.0" width="2" length="3"/>
		<space x="1172.0" y="1252.0" width="2" length="3"/>
		<space x="1176.0" y="1252.0" width="2" length="3"/>
		<space x="1180.0" y="1252.0" width="2" length="3"/>
		<space x="1184.0" y="1252.0" width="2" length="3"/>
		<space x="1188.0" y="1252.0" width="2" length="3"/>
		<space x="1192.0" y="1252.0" width="2" length="3"/>
		<space x="1196.0" y="1252.0" width="2" length="3"/>
		<space x="1200.0" y="1252.0" width="2" length="3"/>
		<space x="1204.0" y="1252.0" width="2" length="3"/>
		<space x="1208.0" y="1252.0" width="2" length="3"/>
		<space x="1212.0" y="1252.0" width="2" length="3"/>
		<space x="1216.0" y="1252.0" width="2" length="3"/>
		<space x="1220.0" y="1252.0" width="2" length="3"/>
		<space x="1224.0" y="1252.0" width="2" length="3"/>
		<space x="1228.0" y="1252.0" width="2" length="3"/>
		<space x="1232.0" y="1252.0" width="2" length="3"/>
		<space x="1116.0" y="1256.0" width="2" length="3"/>
		<space x="1120.0" y="1256.0" width="2" length="3"/>
		<space x="1124.0" y="1256.0" width="2" length="3"/>
		<space x="1128.0" y="1256.0" width="2" length="3"/>
		<space x="1132.0" y="1256.0" width="2" length="3"/>
		<space x="1136.0" y="1256.0" width="2" length="3"/>
		<space x="1140.0" y="1256.0" width="2" length="3"/>
		<space x="1144.0" y="1256.0" width="2" length="3"/>
		<space x="1148.0" y="1256.0" width="2" length="3"/>
		<space x="1152.0" y="1256.0" width="2" length="3"/>
		<space x="1156.0" y="1256.0" width="2" length="3"/>
		<space x="1160.0" y="1256.0" width="2" length="3"/>
		<space x="1164.0" y="1256.0" width="2" length="3"/>
		<space x="1168.0" y="1256.0" width="2" length="3"/>
		<space x="1172.0" y="1256.0" width="2" length="3"/>
		<space x="1176.0" y="1256.0" width="2" length="3"/>
		<space x="1180.0" y="1256.0" width="2" length="3"/>
		<space x="1184.0" y="1256.0" width="2" length="3"/>
		<space x="1188.0" y="1256.0" width="2" length="3"/>
		<space x="1192.0" y="1256.0" width="2" length="3"/>
		<space x="1196.0" y="1256.0" width="2" length="3"/>
		<space x="1200.0" y="1256.0" width="2" length="3"/>
		<space x="1204.0" y="1256.0" width="2" length="3"/>
		<space x="1208.0" y="1256.0" width="2" length="3"/>
		<space x="1212.0" y="1256.0" width="2" length="3"/>
		<space x="1216.0" y="1256.0" width="2" length="3"/>
		<space x="1220.0" y="1256.0" width="2" length="3"/>
		<space x="1224.0" y="1256.0" width="2" length="3"/>
		<space x="1228.0" y="1256.0" width="2" length="3"/>
		<space x="1232.0" y="1256.0" width="2" length="3"/>
		<space x="1116.0" y="1260.0" width="2" length="3"/>
		<space x="1120.0" y="1260.0" width="2" length="3"/>
		<space x="1124.0" y="1260.0" width="2" length="3"/>
		<space x="1128.0" y="1260.0" width="2" length="3"/>
		<space x="1132.0" y="1260.0" width="2" length="3"/>
		<space x="1136.0" y="1260.0" width="2" length="3"/>
		<space x="1140.0" y="1260.0" width="2" length="3"/>
		<space x="1144.0" y="1260.0" width="2" length="3"/>
		<space x="1148.0" y="1260.0" width="2" length="3"/>
		<space x="1152.0" y="1260.0" width="2" length="3"/>
		<space x="1156.0" y="1260.0" width="2" length="3"/>
		<space x="1160.0" y="1260.0" width="2" length="3"/>
		<space x="1164.0" y="1260.0" width="2" length="3"/>
		<space x="1168.0" y="1260.0" width="2" length="3"/>
		<space x="1172.0" y="1260.0" width="2" length="3"/>
		<space x="1176.0" y="1260.0" width="2" length="3"/>
		<space x="1180.0" y="1260.0" width="2" length="3"/>
		<space x="1184.0" y="1260.0" width="2" length="3"/>
		<space x="1188.0" y="1260.0" width="2" length="3"/>
		<space x="1192.0" y="1260.0" width="2" length="3"/>
		<space x="1196.0" y="1260.0" width="2" length="3"/>
		<space x="1200.0" y="1260.0" width="2" length="3"/>
		<space x="1204.0" y="1260.0" width="2" length="3"/>
		<space x="1208.0" y="1260.0" width="2" length="3"/>
		<space x="1212.0" y="1260.0" width="2" length="3"/>
		<space x="1216.0" y="1260.0" width="2" length="3"/>
		<space x="1220.0" y="1260.0" width="2" length="3"/>
		<space x="1224.0" y="1260.0" width="2" length="3"/>
		<space x="1228.0" y="1260.0" width="2" length="3"/>
		<space x="1232.0" y="1260.0" width="2" length="3"/>
		<space x="1116.0" y="1264.0" width="2" length="3"/>
		<space x="1120.0" y="1264.0" width="2" length="3"/>
		<space x="1124.0" y="1264.0" width="2" length="3"/>
		<space x="1128.0" y="1264.0" width="2" length="3"/>
		<space x="1132.0" y="1264.0" width="2" length="3"/>
		<space x="1136.0" y="1264.0" width="2" length="3"/>
		<space x="1140.0" y="1264.0" width="2" length="3"/>
		<space x="1144.0" y="1264.0" width="2" length="3"/>
		<space x="1148.0" y="1264.0" width="2" length="3"/>
		<space x="1152.0" y="1264.0" width="2" length="3"/>
		<space x="1156.0" y="1264.0" width="2" length="3"/>
		<space x="1160.0" y="1264.0" width="2" length="3"/>
		<space x="1164.0" y="1264.0" width="2" length="3"/>
		<space x="1168.0" y="1264.0" width="2" length="3"/>
		<space x="1172.0" y="1264.0" width="2" length="3"/>
		<space x="1176.0" y="1264.0" width="2" length="3"/>
		<space x="1180.0" y="1264.0" width="2" length="3"/>
		<space x="1184.0" y="1264.0" width="2" length="3"/>
		<space x="1188.0" y="1264.0" width="2" length="3"/>
		<space x="1192.0" y="1264.0" width="2" length="3"/>
		<space x="1196.0" y="1264.0" width="2" length="3"/>
		<space x="1200.0" y="1264.0" width="2" length="3"/>
		<space x="1204.0" y="1264.0" width="2" length="3"/>
		<space x="1208.0" y="1264.0" width="2" length="3"/>
		<space x="1212.0" y="1264.0" width="2" length="3"/>
		<space x="1216.0" y="1264.0" width="2" length="3"/>
		<space x="1220.0" y="1264.0" width="2" length="3"/>
		<space x="1224.0" y="1264.0" width="2" length="3"/>
		<space x="1228.0" y="1264.0" width="2" length="3"/>
		<space x="1232.0" y="1264.0" width="2" length="3"/>
		<space x="1116.0" y="1268.0" width="2" length="3"/>
		<space x="1120.0" y="1268.0" width="2" length="3"/>
		<space x="1124.0" y="1268.0" width="2" length="3"/>
		<space x="1128.0" y="1268.0" width="2" length="3"/>
		<space x="1132.0" y="1268.0" width="2" length="3"/>
		<space x="1136.0" y="1268.0" width="2" length="3"/>
		<space x="1140.0" y="1268.0" width="2" length="3"/>
		<space x="1144.0" y="1268.0" width="2" length="3"/>
		<space x="1148.0" y="1268.0" width="2" length="3"/>
		<space x="1152.0" y="1268.0" width="2" length="3"/>
		<space x="1156.0" y="1268.0" width="2" length="3"/>
		<space x="1160.0" y="1268.0" width="2" length="3"/>
		<space x="1164.0" y="1268.0" width="2" length="3"/>
		<space x="1168.0" y="1268.0" width="2" length="3"/>
		<space x="1172.0" y="1268.0" width="2" length="3"/>
		<space x="1176.0" y="1268.0" width="2" length="3"/>
		<space x="1180.0" y="1268.0" width="2" length="3"/>
		<space x="1184.0" y="1268.0" width="2" length="3"/>
		<space x="1188.0" y="1268.0" width="2" length="3"/>
		<space x="1192.0" y="1268.0" width="2" length="3"/>
		<space x="1196.0" y="1268.0" width="2" length="3"/>
		<space x="1200.0" y="1268.0" width="2" length="3"/>
		<space x="1204.0" y="1268.0" width="2" length="3"/>
		<space x="1208.0" y="1268.0" width="2" length="3"/>
		<space x="1212.0" y="1268.0" width="2" length="3"/>
		<space x="1216.0" y="1268.0" width="2" length="3"/>
		<space x="1220.0" y="1268.0" width="2" length="3"/>
		<space x="1224.0" y="1268.0" width="2" length="3"/>
		<space x="1228.0" y="1268.0" width="2" length="3"/>
		<space x="1232.0" y="1268.0" width="2" length="3"/>
		<space x="1116.0" y="1272.0" width="2" length="3"/>
		<space x="1120.0" y="1272.0" width="2" length="3"/>
		<space x="1124.0" y="1272.0" width="2" length="3"/>
		<space x="1128.0" y="1272.0" width="2" length="3"/>
		<space x="1132.0" y="1272.0" width="2" length="3"/>
		<space x="1136.0" y="1272.0" width="2" length="3"/>
		<space x="1140.0" y="1272.0" width="2" length="3"/>
		<space x="1144.0" y="1272.0" width="2" length="3"/>
		<space x="1148.0" y="1272.0" width="2" length="3"/>
		<space x="1152.0" y="1272.0" width="2" length="3"/>
		<space x="1156.0" y="1272.0" width="2" length="3"/>
		<space x="1160.0" y="1272.0" width="2" length="3"/>