<?xml version="1.0" encoding="UTF-8"?>

<!-- generated on 2022-07-12 16:43:31 by Eclipse SUMO duarouter Version 1.9.1
<configuration xmlns:xsi="http://www.w3.org/2001/XMLSchema-instance" xsi:noNamespaceSchemaLocation="http://sumo.dlr.de/xsd/duarouterConfiguration.xsd">

    <input>
        <net-file value="net.net.xml"/>
        <additional-files value="vtype.xml"/>
        <route-files value="trips.xml"/>
    </input>

    <output>
        <output-file value="routes.rou.xml"/>
        <alternatives-output value="routes.rou.alt.xml"/>
    </output>

    <time>
        <begin value="0"/>
        <end value="3600"/>
    </time>

    <report>
        <no-warnings value="true"/>
        <ignore-errors value="true"/>
        <no-step-log value="true"/>
    </report>

</configuration>
-->

<routes xmlns:xsi="http://www.w3.org/2001/XMLSchema-instance" xsi:noNamespaceSchemaLocation="http://sumo.dlr.de/xsd/routes_file.xsd">
    <vehicle id="0" depart="0.00">
        <route edges="4077 4074 4053 4056 4042 4013 3957 4006 1499 2530 1344 2529 4441 2547 2550 2526 2522 2518 2516 1498 195 23 2698 2701 358 1139"/>
    </vehicle>
    <vehicle id="1" depart="0.10">
        <route edges="2316 2415 724 305 2422 1618 1614 764 768 769 772 297 4574 3022 129 83 49 113 374 1816 45 1793 405 2834 44 717 415 349 3041 779 323 341 2040 2048"/>
    </vehicle>
    <vehicle id="2" depart="0.20">
        <route edges="4504 4516 4502 3690 1544 4521 1549 1553 917 1316 3627 1445 3642 4455 3007 3011 3014 3016 2514 2516 1497 4232 4249 4244 4246 4237 4236"/>
    </vehicle>
    <vehicle id="3" depart="0.30">
        <route edges="522 3624 523 2336 2172 1688 2146 3756 462 464 488 3180 1553 917 1316 3627 1445 3642 4455 604 600 597 3166 3741 595 5331 771 761 594 3275 593 537 1427 1428 1444"/>
    </vehicle>
    <vehicle id="4" depart="0.40">
        <route edges="3024 3031 3022 129 83 49 114 116"/>
    </vehicle>
    <vehicle id="5" depart="0.50">
        <route edges="2037 2034 2038 2958 2946 2923 3752 666 2172 1688 2146 3756 462 464 488 3180 1553 917 1316 3627 1445 3642 4455 604 600 597 3166 3741 595 5331 771 761 594 3275 593 583 586 2283 2692 865 1459 867 2274 556 3460"/>
    </vehicle>
    <vehicle id="6" depart="0.60">
        <route edges="1142 2498 146 3130 1143 2837 240 242 49 113 374 1816 45 1793 405 444 1175 1971 1982 1177 1180 1950 727 1937 1939"/>
    </vehicle>
    <vehicle id="7" depart="0.70">
        <route edges="412 324 413 417 3045 2906 418 43 299 81 735 85 2112 2113 1368 493 4600 59 4572 3026 58 739 741 3189 503 1568 1316 3628 4393 4402 3706 3631"/>
    </vehicle>
    <vehicle id="8" depart="0.80">
        <route edges="2045 2046 2039 342 351 324 413 417 3045 2906 419 1981 315 2830 1174 304 1359 1361 220 1651 327 2451 734 1647 1354 2871 1472 2188 666 2172 1688 2146 3756 462 608 3863 3855 3852 3844 3848"/>
    </vehicle>
    <vehicle id="9" depart="0.90">
        <route edges="4835 4821 4836 2298 2289 194 453 2304 1006 743 4893 1036"/>
    </vehicle>
    <vehicle id="10" depart="1.00">
        <route edges="4819 4831 4824 4821 4836 2298 2289 194 3189 503 1568 1315 3709 1558 4353 4480 4340 1312 3571 4273 4331"/>
    </vehicle>
    <vehicle id="11" depart="1.10">
        <route edges="2613 2633 2612 2607 1407 3367 959 2999 3059 3787 962 964 1087 965 938 939 1059 2811 1063 3054 3205 2751 3882 3812 3819 3879 3874 3267 577 3890 3441 3444 3446 1748"/>
    </vehicle>
    <vehicle id="12" depart="1.20">
        <route edges="741 453 2303 2290 4611 2582"/>
    </vehicle>
    <vehicle id="13" depart="1.30">
        <route edges="1471 3926 3920 3917 3810 3804 3798 577 3892 682 2120 3487 2175 2340 663 2447 357 2437 211 1663 1661 273 2712 180 183 124 126 3128 2836 3132 3136 3138 149"/>
    </vehicle>
    <vehicle id="14" depart="1.40">
        <route edges="5011 5013 4977 2744 2736 4961 2727 2728 3267 577 692 689 3887 3902 3884 3097 1471 3926 3920"/>
    </vehicle>
    <vehicle id="15" depart="1.50">
        <route edges="4825 4831 4824 4821 4836 2298 2289 194 3189 503 1568 1315 3709 1558 4353 4481 4477 4472"/>
    </vehicle>
    <vehicle id="17" depart="1.70">
        <route edges="2801 2808 3685 2799 2054 3239 1751 2066 3227 2126 828 3054 3205 2751 3882 3812 3819 3879 3874 3267 577 3892 682 2116 3897 1694 2952 1708 3664"/>
    </vehicle>
    <vehicle id="18" depart="1.80">
        <route edges="493 4600 59 4572 3026 58 4462 4446 4433 1333 4209 2528 1342 2531 1500 3997 4001 3987"/>
    </vehicle>
    <vehicle id="19" depart="1.90">
        <route edges="5077 1525 5085 5093 5102 3171 4189 1538 1339 3995 1499 2530 1344 2529 4441 2547 2550 2526 2522 2518 2516 1498 195 23 2698 2701 358 220 1651 327 207 611 1372 3795"/>
    </vehicle>
    <vehicle id="20" depart="2.00">
        <route edges="4363 4351 4366 4372 4352 1557 3712 1316 3627 1445 3642 4455 3007 3011 3014 3018 3006 3029 3020 3024 3030 2264 1239"/>
    </vehicle>
    <vehicle id="21" depart="2.10">
        <route edges="2084 3103 2079 1354 2871 1472 2189 2190 2185 2187 1133 1473 1474 1120 1121 330 303 1172 317 444 1175 1971 1982 1184 1356 406 2826 400 396 392 2355 2359 2369 2374 2346 2368"/>
    </vehicle>
    <vehicle id="22" depart="2.20">
        <route edges="1414 2869 1411 1408 3759 194 3189 503 3735 3739 3740 2740 3182 577 3892 682 2120 3487 2175 2340 1756 2190 2186 2078 3104 2081 2099 2096"/>
    </vehicle>
    <vehicle id="23" depart="2.30">
        <route edges="1509 4158 1510 1521 3169 3950 4168 1329 1334 4432 4445 3014 3018 3006 3029 3020 139 737 265 773 775 266 268 1616 1617 2996 5327 5329 5330 5296 2317"/>
    </vehicle>
    <vehicle id="24" depart="2.40">
        <route edges="4061 3965 4063 4056 4042 4013 3957 4006 1499 2530 1344 2527 4208 1335 1345 3562 1349 741 453 2304 1006 3195 1563 2736 4961 2726"/>
    </vehicle>
    <vehicle id="25" depart="2.50">
        <route edges="2761 2751 3882 3812 3819 3879 3874 3267 577 3892 682 2120 3487 2175 2340 1756 2190 2185 2187 1133 1473 1474 1120 1121 330 303 1172 317 444 1175 1971 1983 1970 1985"/>
    </vehicle>
    <vehicle id="26" depart="2.60">
        <route edges="2277 1725 3362 3933 617 1415 496 578 592 2207 539 625 619 623"/>
    </vehicle>
    <vehicle id="27" depart="2.70">
        <route edges="4112 4130 4148 4025 3982 3989 4000 3995 1499 2530 1344 2527 4208 1335 1345 3562 1349 741 453 2304 1006 754 2593 805 970 2073 467 469 472 840 1306 474 5353 837 833 2130 5349 720 3695 3948 3947"/>
    </vehicle>
    <vehicle id="28" depart="2.80">
        <route edges="1826 1819 1844 430 1848 433 437 439 1144 442 291 294 295 59 4572 3026 58 739 741 3189 503 1568 1315 3709 1560 4469"/>
    </vehicle>
    <vehicle id="29" depart="2.90">
        <route edges="1790 5287 5290 3382 3274 1398 3373 3380 3367 959 2999 3059 3787 962 964 1087 965 938 939 1056 997 2791"/>
    </vehicle>
    <vehicle id="30" depart="3.00">
        <route edges="934 2775 2771 849 698 3227 2126 828 3054 3204 3200 3198 3193 3190 3732 3007 4458 1350 3561 1346 1333 4209 2528 1342 2531 1501 4008 3956 4015 4041 4057 4054 4076"/>
    </vehicle>
    <vehicle id="31" depart="3.10">
        <route edges="3703 1558 4353 4480 4340 1312 3571 4272"/>
    </vehicle>
    <vehicle id="32" depart="3.20">
        <route edges="4990 4993 4996 2749 3198 754 2592 4912 4681"/>
    </vehicle>
    <vehicle id="33" depart="3.30">
        <route edges="2091 2077 2084 3103 2079 1354 2871 1472 2188 666 2172 1688 2146 3756 462 464 488 3180 1553 917 1316 3627 1445 3642 4455 604 600 597 3166 3741 595 5331 771 762 775 266 268 1615 1611 1165 3288 3301 1171"/>
    </vehicle>
    <vehicle id="34" depart="3.40">
        <route edges="2501 2504 2488 1917 1925 1930 1929 1283 1785 623 581 3701 583 586 2283 615 2694 1453 1460 643 2269"/>
    </vehicle>
    <vehicle id="35" depart="3.50">
        <route edges="1999 2002 2001 1998 93 1966 1988 1184 1356 406 2826 398 105 1865 260 78 156 656"/>
    </vehicle>
    <vehicle id="36" depart="3.60">
        <route edges="5141 5151 4556 5163 3190 3732 3007 3011 3014 3018 3006 3029 3019 296 293 290 441 1143 2837 241 439 1145 2497 2485"/>
    </vehicle>
    <vehicle id="37" depart="3.70">
        <route edges="4144 3982 3989 4000 3995 1499 2530 1344 2529 4441 2547 2550 2526 2522 2518 2516 1498 195 67 70 20 732 1660 1656 2865"/>
    </vehicle>
    <vehicle id="38" depart="3.80">
        <route edges="5343 668 173 175 161 166 1230 1162 376 93 1966 1988 5317 315 2830 1174 304 1359 1361 220 1651 327 2451 734 1647 1354 2871 1472 2188 666 2172 1688 2146 3756 462 602 2729 466 2122 467 469 471 3746 1303 5249 3224"/>
    </vehicle>
    <vehicle id="39" depart="3.90">
        <route edges="2268 553 2275 870 570 2676 855 2599 1719 573 2683 758 951 5038 2883 749 1024 4868 4668 4879 1041 2165"/>
    </vehicle>
    <vehicle id="40" depart="4.00">
        <route edges="3721 5058 3720 1505 3713 1510 1521 3169 3950 4168 1329 1334 4432 4445 3014 3018 3006 3029 3020 3024 3030 2264 1241 1259 2202 1279 2225 1251 2245"/>
    </vehicle>
    <vehicle id="41" depart="4.10">
        <route edges="3832 3833 3839 3814 3815 3830 3818 3819 3879 3874 3266 2729 466 2122 467 469 471 3746 1303 5249 3243 5246"/>
    </vehicle>
    <vehicle id="42" depart="4.20">
        <route edges="2898 802 2458 110 3594 236 3599 3607 77 658 76 73 1953 255 65 62 67 70 20 729 2714 506 1753 2339 517 789 289 2944 2961 2917 3420 3319 3322 2030"/>
    </vehicle>
    <vehicle id="43" depart="4.30">
        <route edges="985 721 3147 724 305 2422 1618 1614 764 768 769 772 297 4574 3022 129 83 49 113 374 1816 45 1793 405 2834 44 717 348"/>
    </vehicle>
    <vehicle id="44" depart="4.40">
        <route edges="1461 1454 2983 1722 2280 617 1415 496 578 592 2208 2210 2214 2228 2224 2225 1253 1248 1246 1244"/>
    </vehicle>
    <vehicle id="45" depart="4.50">
        <route edges="1544 4519 1545 3692 4503 3688 4509 4495 1307 4313 3579 1319 5043 5049 5055 1512 5061 5069 5077 1525 5085 5093 5102 3171 4189 1538 1341 4005 3952 3991 3971 4033 4047 4017 4023"/>
    </vehicle>
    <vehicle id="46" depart="4.60">
        <route edges="4758 4760 4743 2300 2293 2304 1006 3193 3190 3732 3007"/>
    </vehicle>
    <vehicle id="47" depart="4.70">
        <route edges="1330 4223 1331 4169 3949 3170 5173 1327 1325 3574 1311 4341 4479 4352 1559 3705 3739 3740 2740 3182 602 2729 466 2122 467 469 471 3746 3229 3121 3233 3236 3780 2802"/>
    </vehicle>
    <vehicle id="48" depart="4.80">
        <route edges="976 958 1049 1051 1053 1069 935 1011 4847 3160 4651 2289 194 3007 4458 1350 3563 3636 4267 3566"/>
    </vehicle>
    <vehicle id="49" depart="4.90">
        <route edges="810 3453 287 2986 553 2275 871 1722 2280 617 1415 496 578 537 1426 446 448 3112 449 763 767 451 3165 1408 3759 605 58 4462 4446 4433 1332 1331 4169 3949 3168 1523 1509 4159 4165 1526 5078 5070"/>
    </vehicle>
    <vehicle id="50" depart="5.00">
        <route edges="1073 1051 1053 1069 935 1011 4847 3160 4651 2289 605 58 4462 4446 4433 1333 4209 2528 1342 2532 4430"/>
    </vehicle>
    <vehicle id="51" depart="5.10">
        <route edges="4261 3638 4421 1349 3011 3014 3018 3006 3029 3020 3022 3128 2836 3132 3134 1927 657 3601 3622 3612 232 2462 3598"/>
    </vehicle>
    <vehicle id="52" depart="5.20">
        <route edges="2277 1725 3362 2688 2686 2683 1613 1614 765 451 3165 1408 3759 605 58 4462 4446 4433 1333 4209 2528 1342 2531 1501 4008 3956 4015 4041 4055 4062 4060 4080"/>
    </vehicle>
    <vehicle id="53" depart="5.30">
        <route edges="1552 1549 1553 911 3740 2740 3182 577 3892 682 2120 3487 2175 2340 1756 2190 2186 2079 1352 270 1122 2895 208 331 1137 2010 3048 3049 353 727 1936 133 134 2904 385 384 308"/>
    </vehicle>
    <vehicle id="54" depart="5.40">
        <route edges="3198 3193 3190 3732 3007 3011 3014 3018 3006 3029 3019 296 293 290 441 1143 2837 240 242 49 113 374 1816 45 1793 405 2834 44 717"/>
    </vehicle>
    <vehicle id="55" depart="5.50">
        <route edges="514 282 2718 3451 2022 283 211 1663 1661 273 2712 180 183 124 126 1368 3024 3030 2264 1241 1259 2202 1279 2225 1251 2245 2249 2248"/>
    </vehicle>
    <vehicle id="56" depart="5.60">
        <route edges="3447 3449 2724 2718 3451 2022 284 21 87 10 99 83 49 113 432 1852"/>
    </vehicle>
    <vehicle id="57" depart="5.70">
        <route edges="5332 771 762 775 267 763 767 451 3165 1408 3759 194 3189 503 3734 2589 4544 5114"/>
    </vehicle>
    <vehicle id="58" depart="5.80">
        <route edges="2421 2018 3673 2598 2310 2883 745 1011 4847 3160 4651 2289 605 58 4462 4446 4433 1333 4209 2528 1342 2531 1501 4008 3956 4015 4043 4040 4069 4072"/>
    </vehicle>
    <vehicle id="59" depart="5.90">
        <route edges="3948 3947 3785 2054 3239 1751 2066 3227 2126 828 3054 3205 2751 3882 3812 3819 3879 3874 3267 577 3890 3441 3443 1736"/>
    </vehicle>
    <vehicle id="60" depart="6.00">
        <route edges="4623 4800 4614 4611 2581 4802 2298 2289 605 3018 3006 3029 3020 3022 3128 2836 3132 3134 1927 657 3603 3609 3599 3608"/>
    </vehicle>
    <vehicle id="61" depart="6.10">
        <route edges="4695 4691 4688 4976 2725 4960 2737 1562 3185 917 1316 3627 1446 4407 4257 1336 3570"/>
    </vehicle>
    <vehicle id="62" depart="6.20">
        <route edges="100 99 85 2112 2113 1368 493 4600 59 4572 3026 3016 2514 2517 2519 2521 2526"/>
    </vehicle>
    <vehicle id="63" depart="6.30">
        <route edges="111 170 668 173 175 161 166 1230 1162 376 93 1966 1988 5317 315 2830 1174 304 1359 1361 222 245 89 196 1496 58"/>
    </vehicle>
    <vehicle id="64" depart="6.40">
        <route edges="5151 4557 5152 5142 5132 5122 5116 5110 2589 4546 4920 4924 4928 4935"/>
    </vehicle>
    <vehicle id="65" depart="6.50">
        <route edges="2466 2463 2110 1787 622 1781 1260 1239 2263 3031 493 4600 59 4572 3026 58 739 741 453 2304 1006 754 2593 805 970 2073 467 469 471 3746 1304"/>
    </vehicle>
    <vehicle id="66" depart="6.60">
        <route edges="5148 5160 4560 5165 5169 5163 3190 3732 3007 3011 3014 3018 3006 3029 3019 296 293 290 441 1143 2837 240 242 49 113 374 1816 45 1793 405 444 1175 1971 1982 5315 5313 5310 5307 51 1237 675"/>
    </vehicle>
    <vehicle id="67" depart="6.70">
        <route edges="1438 1436 1440 3352 3353 2687 3362"/>
    </vehicle>
    <vehicle id="68" depart="6.80">
        <route edges="1355 332 304 1359 1361 222 245 89 196 1496 58 739 741 453 2303 2290 4611"/>
    </vehicle>
    <vehicle id="69" depart="6.90">
        <route edges="4638 4633 4637 4651 2289 605 3016 2514 2516 1498 195 23 2698 2701 358 1137 2012 2200 1625"/>
    </vehicle>
    <vehicle id="70" depart="7.00">
        <route edges="3325 3330 3327 1293 3324 3647 3656 3653"/>
    </vehicle>
    <vehicle id="71" depart="7.10">
        <route edges="2269 641 1462 1451 2695 617 1415 496 578 537 1426 446 448 3112 449 763 767 451 3165 1408 3759 194 3189 503 3734 2587 5109 5115 5122"/>
    </vehicle>
    <vehicle id="72" depart="7.20">
        <route edges="3031 3022 129 83 49 113 374 1816 45 1793 405 444 1175 1971 1982 1177 1179 1995"/>
    </vehicle>
    <vehicle id="73" depart="7.30">
        <route edges="362 1637 361 395 5317 315 2830 1174 304 1359 1361 220 1651 327 2451 734 1647 1354 2871 1472 2188 666 2172 1688 2146 3756 462 464 488 3180 1552 1550 1554 4485 4482 4473"/>
    </vehicle>
    <vehicle id="74" depart="7.40">
        <route edges="1956 1955 1957 110 3594 236 3599 3607 78 156 655 1929 1283 1785 623 582 629 540 2472"/>
    </vehicle>
    <vehicle id="75" depart="7.50">
        <route edges="968 1190 1200 3183 5274 5272 5268 3200 3198 3193 3190 3732 3007 4458 1350 3561 1346 1333 4209 2528 1342 2531 1501 4008 3956 4014 3962 4101 4117"/>
    </vehicle>
    <vehicle id="76" depart="7.60">
        <route edges="3108 3110 3112 449 763 766 768 769 772 297 4575 4603 4608 4597 4579 4588 4590 3516"/>
    </vehicle>
    <vehicle id="77" depart="7.70">
        <route edges="1595 1590 704 1581 528 1599 526 3489 1688 2146 3756 462 602 2729 466 2122 467 469 471 3746 3229 3121 3233 2056"/>
    </vehicle>
    <vehicle id="78" depart="7.80">
        <route edges="2600 3468 2599 1719 573 2683 1613 1614 765 451 3165 1408 3759 194 3189 503 3735 3739 3740 2740 3182 608 3863 3855 3852 3844 3849 3843"/>
    </vehicle>
    <vehicle id="79" depart="7.90">
        <route edges="2096 2098 2091 2077 2084 3103 2079 1354 2871 1472 2188 1753 2339 517 789 289 2944 2961 1702 2037 2035"/>
    </vehicle>
    <vehicle id="80" depart="8.00">
        <route edges="1368 493 4600 59 4572 3026 58 4462 4446 4433 1333 4209 2528 1342 2531 1501 4008 3956 4015 4043 4039"/>
    </vehicle>
    <vehicle id="81" depart="8.10">
        <route edges="2090 2903 2089 2923 3752 666 2172 1688 2146 3756 462 464 488 3180 1553 917 1316 3627 1445 3642 4455 604 600 597 3166 3741 595 5331 771 761 594 3275 593 583 586 2283 2692 865 1459 868 563 3383 5289"/>
    </vehicle>
    <vehicle id="82" depart="8.20">
        <route edges="5066 4162 3720 1505 3713 1510 1521 3169 3950 4168 1329 1334 4432 4445 3014 3018 3006 3029 3020 3022 3128 2836 3132 3136 3137 1363"/>
    </vehicle>
    <vehicle id="83" depart="8.30">
        <route edges="2132 2128 701 830 698 3227 2126 828 3054 3204 3200 3198 3193 3190 3732 3007 4458 1350 3561 1346 1333 4209 2528 1343 1534 4182 4198"/>
    </vehicle>
    <vehicle id="84" depart="8.40">
        <route edges="2012 2201 224 2 5 10 99 83 435 1905 2475 2477 549 1903 1911 27 261 1866 104 650 389 363 2352 393 2407 1636 3604 1639 1641"/>
    </vehicle>
    <vehicle id="85" depart="8.50">
        <route edges="620 1787 619 623 581 3701 583 586 2283 2692 865 1459 870 570 2674 3504 3765"/>
    </vehicle>
    <vehicle id="86" depart="8.60">
        <route edges="3309 2671 3376 2670 855 2599 1719 573 2683 1613 1614 765 451 3165 1408 3759 194 453 2303 2290 4612 4616 4622 4714 4716 4720"/>
    </vehicle>
    <vehicle id="87" depart="8.70">
        <route edges="4827 4813 4802 2298 2289 605 3018 3006 3029 3019 296 293 290 441 1143 2837 240 242 49 113 432 1853 1856 372 1901"/>
    </vehicle>
    <vehicle id="88" depart="8.80">
        <route edges="1493 1483 1487 1496 58 739 741 3189 503 3735 3739 3740 2740 3182 577 692 689 3887 3902 3100 3904 3061"/>
    </vehicle>
    <vehicle id="89" depart="8.90">
        <route edges="3033 1159 1156 95 336 418 43 299 81 736 265 774 594 3276"/>
    </vehicle>
    <vehicle id="90" depart="9.00">
        <route edges="4473 4482 4474 4467 1558 4353 4480 4340 1312 3572 1323 1326 5172 3169 3950 4168 1330 4225 4215 4219"/>
    </vehicle>
    <vehicle id="91" depart="9.10">
        <route edges="891 888 2639 892 2642 909 2598 2310 2883 745 1011 4847 3160 4651 2289 605 3016 2514 2516 1497"/>
    </vehicle>
    <vehicle id="92" depart="9.20">
        <route edges="2912 2182 1587 1710 1609 3490 523 2336 2172 1688 2146 3756 462 602 2729 466 2121 3200 3198 754 2593"/>
    </vehicle>
    <vehicle id="93" depart="9.30">
        <route edges="5077 1526 5078 5070 5062 1513 5056 5050 5044 1320 3580 4314 1308 3585 1311 4341 4479 4352 1559 3705 3739 3740 2740 3182 577 3892 682 2120 3487 2170 2178"/>
    </vehicle>
    <vehicle id="94" depart="9.40">
        <route edges="1908 1911 77 658 76 437 439 1144 442 291 294 295 59 4572 3026 199 201 3268 4862 1011 4847 3161 3159"/>
    </vehicle>
    <vehicle id="95" depart="9.50">
        <route edges="3024 3030 2264 1241 1258 1782 1784 3134 1927 657 3601 3622 3612 232"/>
    </vehicle>
    <vehicle id="96" depart="9.60">
        <route edges="2193 1354 2871 1472 2188 663 2447 357 2437 211 1663 1661 273 2712 180 183 124 126 30 130 550"/>
    </vehicle>
    <vehicle id="97" depart="9.70">
        <route edges="3142 3145 3152 979 986 2310 2883 745 1011 4847 3160 4651 2289 605 58 4462 4446 4433 1332 1331 4169 3949 3168 1523 1509 4159 4166 5081 5073"/>
    </vehicle>
    <vehicle id="98" depart="9.80">
        <route edges="367 1827 366 1877 368 430 1848 433 73 1953 255 65 63 188 124 126"/>
    </vehicle>
    <vehicle id="99" depart="9.90">
        <route edges="995 2803 3349 1076 1087 965 968 1190 1200 3183 5274 5272 5268 3200 3198 3195 1562 3184 4957"/>
    </vehicle>
    <vehicle id="100" depart="10.00">
        <route edges="80 41 411 340 410 413 417 3045 2906 418 43 299 81 736 265 773 775 266 268 1615 760 2410 3478 1716 2601 857 2675 568 565"/>
    </vehicle>
    <vehicle id="101" depart="10.10">
        <route edges="5016 4705 4700 4996 2749 3198 3193 3190 3732 3007 3011 3014 3018 3006 3029 3019 296 293 290 441 1143 2837 240 242 49 113 374 1816 45 1792 1794 1798"/>
    </vehicle>
    <vehicle id="102" depart="10.20">
        <route edges="3376 2670 857 2675 569 871 1722 2280 617 1415 496 578 592 2207 539 624 1784 3134 1927 656 157 27 261 1866 103 399 2827 407 1357 1177 1180 1949 1947 1990 2002"/>
    </vehicle>
    <vehicle id="103" depart="10.30">
        <route edges="2904 386 1236 1234 1231 1230 1162 376 93 1966 1988 5317 315 2830 1174 304 1359 1361 220 1651 327 2451 734 1647 1354 2871 1472 2188 666 2172 1688 2146 3756 462 464 487 1546 4500 3688 4509 4495 1308"/>
    </vehicle>
    <vehicle id="104" depart="10.40">
        <route edges="2803 3347 2804 996 1081 979 986 2308 3675 806 901"/>
    </vehicle>
    <vehicle id="105" depart="10.50">
        <route edges="2269 641 1462 1451 2695 617 1415 496 578 537 1426 446 448 3112 449 763 767 451 3165 1408 3759 194 453 2303 2290 4612 4616 4622 4714 4717"/>
    </vehicle>
    <vehicle id="106" depart="10.60">
        <route edges="3208 3204 3200 3198 3193 3190 3732 3007 3011 3014"/>
    </vehicle>
    <vehicle id="107" depart="10.70">
        <route edges="741 453 2304 1006 754 2593 805 970"/>
    </vehicle>
    <vehicle id="108" depart="10.80">
        <route edges="3699 3697 300 3945 3942 3785 2054 3239 1751 2066 3227 2126 828 3054 3205 2751 3882 3812 3819 3879 3874 3267 464 488 3180 1553 917 1316 3628 4393 4404 4418"/>
    </vehicle>
    <vehicle id="109" depart="10.90">
        <route edges="1750 1735 1738 2141 3892 682 2120 3487 2175 2340 1756 2190 2185 2187 1133 1473 1474 1120 1121 330 303 1172 317 444 1175 1971 1982 1184 1356 406 2826 400 396 392 2355 2359 2369 2375 2376 2365 2395 1643 2398"/>
    </vehicle>
    <vehicle id="110" depart="11.00">
        <route edges="799 1597 1715 3077 684 3887 3902 3884 3097 1471 3926 3920 3917 3810 3803"/>
    </vehicle>
    <vehicle id="111" depart="11.10">
        <route edges="3631 4416 4418 4412 4406 1445 3642 4455 3189 503 3734 2589 4544 5114 5118 5127 5139 5144 5156 4549 4552"/>
    </vehicle>
    <vehicle id="112" depart="11.20">
        <route edges="13 18 1622 225 1361 220 1651 327 2451 734 1647 1354 2871 1472 2188 666 2172 1688 2146 3756 462 608 3863 3854 3869 3822 3825"/>
    </vehicle>
    <vehicle id="113" depart="11.30">
        <route edges="3459 553 2275 870 570 2676 855 2599 1719 573 2683 758 951 5039 5034"/>
    </vehicle>
    <vehicle id="114" depart="11.40">
        <route edges="1764 1761 1765 1779 651 260 77 658 76 437 439 1144 442 291 292 737 265 773 775 266 268 1615 1613 1614 764"/>
    </vehicle>
    <vehicle id="115" depart="11.50">
        <route edges="1415 496 578 592 2207 539 624 1784 3134 1927 656 157 27 261 1864 1882"/>
    </vehicle>
    <vehicle id="116" depart="11.60">
        <route edges="388 1628 1757 1761 1765 1779 651 260 77 658 76 437 439 1144 442 291 294 295 59 4572 3026 58 4462 4446 4433 1333 4207 4220 4216 4229"/>
    </vehicle>
    <vehicle id="117" depart="11.70">
        <route edges="2120 3487 2174 2337 524 3491 1607 2938 1587"/>
    </vehicle>
    <vehicle id="118" depart="11.80">
        <route edges="5208 5215 5207 3634 1337 4256 4406 1445 3642 4455 453 2304 1006 743 4893 1041 2164"/>
    </vehicle>
    <vehicle id="119" depart="11.90">
        <route edges="3878 3879 3874 3267 464 487 1546 4500 3688 4509 4495 1307 4313 3579 1319 5043 5049 5055 1512 5061 5069 5077 1525 5085 5093 5102 3171 4189 1538 1341 4004 3990"/>
    </vehicle>
    <vehicle id="120" depart="12.00">
        <route edges="3005 485 3026 58 739 741 3189 503 3735 3739 3740 2740 3182 608 3863 3854 3869 3823"/>
    </vehicle>
    <vehicle id="121" depart="12.10">
        <route edges="3549 3540 4686 2590 3195 1562 3185 3739 3740 2740 3182 577 3892 682 2120 3487 2175 2340 1756 2190 2186 2079 1352 270 1122 2895 207 611"/>
    </vehicle>
    <vehicle id="122" depart="12.20">
        <route edges="1970 1985 95 336 418 43 299 81 735 85 2112 2113 1368 493 4600 59 4572 3026 58 739 741 3189 503 1568 1316 3627 1446 4405 4414 4409"/>
    </vehicle>
    <vehicle id="123" depart="12.30">
        <route edges="2138 1688 2146 3756 462 464 488 3180 1553 917 1316 3627 1445 3642 4455 604 201 3269 1410 2868"/>
    </vehicle>
    <vehicle id="124" depart="12.40">
        <route edges="4215 4218 4208 1334 4432 4445 3014 199 201 3268 4862 1003 931 929 953 2308 3675 807 904 2641 2412"/>
    </vehicle>
    <vehicle id="125" depart="12.50">
        <route edges="2504 2488 1916 2484 147 2498 146 1366 1368 493 4600 59 4572"/>
    </vehicle>
    <vehicle id="126" depart="12.60">
        <route edges="1375 1382 698 1303 5249 5257 1299 3247 3249 3345 3218"/>
    </vehicle>
    <vehicle id="127" depart="12.70">
        <route edges="99 85 2112 2113 1368 139 737 265 773 775 266 268 1615 758 950 958 1079 957 976"/>
    </vehicle>
    <vehicle id="128" depart="12.80">
        <route edges="1379 1575 830 698 3227 2126 828 3054 3205 2751 3882 3812 3819 3879 3874 3267 577 3892 682 2118 514 282 2718 3451 2022 283 20"/>
    </vehicle>
    <vehicle id="129" depart="12.90">
        <route edges="2269 641 1462 1451 2695 617 1415 496 578 537 1426 446 448 3112 449 763 767 451 3165 1408 3759 600"/>
    </vehicle>
    <vehicle id="130" depart="13.00">
        <route edges="5160 4561 5158 5150"/>
    </vehicle>
    <vehicle id="131" depart="13.10">
        <route edges="2758 2762 2761 2751 3882 3812 3819 3879 3874 3267 577 3892 682 2118 514 282 2718 3451 2022 284 21 87 10 99 83 49 113 432 1853 1856 372 1900 1868 262 652 1778 1767 1760"/>
    </vehicle>
    <vehicle id="132" depart="13.20">
        <route edges="495 1417 496 578 537 1426 446 448 3112 449 763 767 451 3165 1408 3759 194 3189 503 1568 1316 3628 4393 4402 3706 3629 4356"/>
    </vehicle>
    <vehicle id="133" depart="13.30">
        <route edges="396 393 2407 1637 361 395 5317 315 2830 1174 304 1359 1361 220 1651 327 2451 734 1647 1354 2871 1472 2188 666 2172 1688 2146 3756 462 464 488 3180 1553 917"/>
    </vehicle>
    <vehicle id="134" depart="13.40">
        <route edges="4137 4119 4089 4013 3957 4006 1499 2530 1344 2527 4208 1334 4432 4445 3014 199 201 3268 4862 1003 931 929 953 2312 990 1045"/>
    </vehicle>
    <vehicle id="135" depart="13.50">
        <route edges="4875 4877 4868 4668 4879 752 2590 3193 3190 3732 3007 3011 3014 3018 3006 3029 3019 296 293 290 441 1143 2837 241"/>
    </vehicle>
    <vehicle id="136" depart="13.60">
        <route edges="4178 4200 4179 4176 4170 4168 1329 1334 4432 4445 3014 199 600 597 3166 3741 595 5331 771 761 594 3276 3109 1218 3107 636"/>
    </vehicle>
    <vehicle id="137" depart="13.70">
        <route edges="1658 2862 2851 2873 2856 2871 1472 2188 666 2172 1688 2146 3756 462 464 488 3180 1553 3737 913 1566"/>
    </vehicle>
    <vehicle id="138" depart="13.80">
        <route edges="1534 4181 1536 1344 2527 4208 1335 1345 3562 1349 741 3189 503 3735 3739 3740 2740 3182 577 3892 682 2120 3487 2170 2179 3670"/>
    </vehicle>
    <vehicle id="139" depart="13.90">
        <route edges="230 2453 2456 3598 3594 236 3599 3607 77 658 76 73 1953 255 65 62 67 70 69 2435 281 695 2721 2138 1688 2146 3756 692 689 3887 3902 3884 3097 1471 3926"/>
    </vehicle>
    <vehicle id="140" depart="14.00">
        <route edges="4418 4412 4406 1445 3642 4455 3007 3011 3014 3018 3006 3029 3020 3022 3128 2836 3132 3134 1927 656 157 28 1959"/>
    </vehicle>
    <vehicle id="141" depart="14.10">
        <route edges="4055 4063 4056 4042 4013 3957 4006 1499 2530 1344 2529 4441 2547 2550 2526 2522 2518 2516 1498 195 23 2698 2701 358 1137 2012 2201 225"/>
    </vehicle>
    <vehicle id="142" depart="14.20">
        <route edges="339 177 2970 2907 5347 166 1230 1162 376 93 1966 1988 1184 1356 406 2826 398 105 1865 260 78 156 655 1929 1283 1785 623 581 3701 583 586 2283 2692 865 1459 868 563 3383 5288"/>
    </vehicle>
    <vehicle id="143" depart="14.30">
        <route edges="5004 5011 5012 2749 3198 3193 3190 3732 3007 3011 3014 3018 3006 3029 3019 296 293 290 441 1143 2837 241 439 1145 2496 1141 145 2499 147"/>
    </vehicle>
    <vehicle id="144" depart="14.40">
        <route edges="3033 1159 1156 95 336 418 43 299 81 736 265 773 775 266 268 1615 758 951 5038 953 2308"/>
    </vehicle>
    <vehicle id="145" depart="14.50">
        <route edges="1019 2596 4911 2593 3197 2748 4995 4702 2732 4966 4969 2160 466"/>
    </vehicle>
    <vehicle id="146" depart="14.60">
        <route edges="4067 4068 4039 4042 4013 3957 4006 1499 2530 1344 2527 4208 1334 4432 4445 3014 3018 3006 3029 3020 3024 3030 2264 1241 1259 2202 1279 2225 1251 2243 2241"/>
    </vehicle>
    <vehicle id="147" depart="14.70">
        <route edges="4528 4464 4529 1545 3691 1548 488 3182 577 3892 682 2116 3897 1694 2952 1708 3663 3647 3655 3095 1463 3660"/>
    </vehicle>
    <vehicle id="148" depart="14.80">
        <route edges="3054 467 469 471 3746 3229 3121 3231 2419 1059"/>
    </vehicle>
    <vehicle id="149" depart="14.90">
        <route edges="139 737 265 773 775 267 763 767 451 3165 1408 3759 194 3189 503 3734 2587 5109 5115 5121 5131 5141 5151 4556 5162 5167"/>
    </vehicle>
    <vehicle id="150" depart="15.00">
        <route edges="5282 1570 1575 830 698 3227 2126 828 3054 3205 2751 3882 3812 3819 3879 3874 3267 464 488 3180 1553 917 1316 3627 1446 4407 4257 1338 3634"/>
    </vehicle>
    <vehicle id="151" depart="15.10">
        <route edges="4954 4946 4943 2740 3182 602 2729 466 2122 3205 2751 3882 3812 3819"/>
    </vehicle>
    <vehicle id="152" depart="15.20">
        <route edges="172 668 173 175 161 166 1230 1162 376 93 1966 1988 5317 315 2830 1174 304 1359 1361 1137 2012 2201 1 1621"/>
    </vehicle>
    <vehicle id="153" depart="15.30">